REMARK  4 active torsions:
REMARK  status: ('A' for Active; 'I' for Inactive)
REMARK    1  A    between atoms: C2_3  and  O4_8 
REMARK    2  A    between atoms: O3_6  and  C13_18 
REMARK    3  A    between atoms: C4_7  and  O5_10 
REMARK    4  A    between atoms: C9_14  and  C10_15 
ROOT
HETATM    1  C1  NAR A1352      16.742  23.607  30.136  1.00 54.80     0.074 A 
HETATM    2  O1  NAR A1352      18.965  22.774  30.522  1.00 58.89    -0.340 OA
HETATM    3  C2  NAR A1352      15.903  24.723  29.940  1.00 52.34     0.071 A 
HETATM    4  O2  NAR A1352      20.465  26.667  30.614  1.00 60.91    -0.292 OA
HETATM    5  C3  NAR A1352      16.341  25.988  29.915  1.00 53.66     0.074 A 
HETATM    6  C4  NAR A1352      17.646  26.282  30.060  1.00 54.18     0.085 A 
HETATM    7  C5  NAR A1352      18.619  25.188  30.283  1.00 54.76     0.076 A 
HETATM    8  C6  NAR A1352      18.097  23.813  30.321  1.00 54.15     0.089 A 
HETATM    9  C7  NAR A1352      20.086  25.446  30.535  1.00 58.97     0.167 C 
HETATM   10  C8  NAR A1352      20.983  24.177  30.799  1.00 58.10     0.121 C 
HETATM   11  C9  NAR A1352      20.373  22.903  30.174  1.00 61.68     0.169 C 
ENDROOT
BRANCH  11  12
HETATM   12  C10 NAR A1352      21.065  21.558  30.425  1.00 64.67    -0.028 A 
HETATM   13  C11 NAR A1352      22.090  21.297  31.366  1.00 63.55     0.012 A 
HETATM   14  C12 NAR A1352      22.628  20.011  31.484  1.00 62.00     0.037 A 
HETATM   15  C13 NAR A1352      22.209  18.948  30.664  1.00 63.22     0.065 A 
HETATM   16  C14 NAR A1352      21.228  19.184  29.714  1.00 62.68     0.037 A 
HETATM   17  C15 NAR A1352      20.661  20.463  29.606  1.00 64.40     0.012 A 
BRANCH  15  18
HETATM   18  O3  NAR A1352      22.757  17.669  30.761  1.00 64.59    -0.361 OA
HETATM   19  H04 NAR A1352      22.891  17.310  29.881  1.00 64.59     0.217 HD
ENDBRANCH  15  18
ENDBRANCH  11  12
BRANCH   3  20
HETATM   20  O4  NAR A1352      14.715  24.663  29.345  1.00 53.34    -0.361 OA
HETATM   21  H05 NAR A1352      14.379  23.765  29.390  1.00 53.34     0.217 HD
ENDBRANCH   3  20
BRANCH   6  22
HETATM   22  O5  NAR A1352      17.957  27.572  29.989  1.00 54.80    -0.360 OA
HETATM   23  H06 NAR A1352      18.021  27.936  30.875  1.00 54.80     0.217 HD
ENDBRANCH   6  22
TORSDOF 4
