REMARK  4 active torsions:
REMARK  status: ('A' for Active; 'I' for Inactive)
REMARK    1  A    between atoms: C2_3  and  O4_8 
REMARK    2  A    between atoms: O3_6  and  C13_18 
REMARK    3  A    between atoms: C4_7  and  O5_10 
REMARK    4  A    between atoms: C9_14  and  C10_15 
ROOT
HETATM    1  C1  NAR A1352       2.227   2.490  -2.879  1.00 54.80     0.074 A 
HETATM    2  O1  NAR A1352       2.583   4.202  -1.226  1.00 58.89    -0.340 OA
HETATM    3  C2  NAR A1352       1.611   2.109  -4.088  1.00 52.34     0.071 A 
HETATM    4  O2  NAR A1352       0.057   6.799  -3.296  1.00 60.91    -0.292 OA
HETATM    5  C3  NAR A1352       0.829   2.919  -4.813  1.00 53.66     0.074 A 
HETATM    6  C4  NAR A1352       0.591   4.188  -4.435  1.00 54.18     0.085 A 
HETATM    7  C5  NAR A1352       1.180   4.695  -3.174  1.00 54.76     0.076 A 
HETATM    8  C6  NAR A1352       2.019   3.770  -2.396  1.00 54.15     0.089 A 
HETATM    9  C7  NAR A1352       0.892   6.080  -2.643  1.00 58.97     0.167 C 
HETATM   10  C8  NAR A1352       1.559   6.453  -1.265  1.00 58.10     0.121 C 
HETATM   11  C9  NAR A1352       2.831   5.618  -0.999  1.00 61.68     0.169 C 
ENDROOT
BRANCH  11  12
HETATM   12  C10 NAR A1352       3.547   5.780   0.347  1.00 64.67    -0.028 A 
HETATM   13  C11 NAR A1352       3.817   4.759   1.290  1.00 63.55     0.012 A 
HETATM   14  C12 NAR A1352       4.485   5.058   2.482  1.00 62.00     0.037 A 
HETATM   15  C13 NAR A1352       4.878   6.368   2.809  1.00 63.22     0.065 A 
HETATM   16  C14 NAR A1352       4.599   7.391   1.917  1.00 62.68     0.037 A 
HETATM   17  C15 NAR A1352       3.955   7.098   0.705  1.00 64.40     0.012 A 
BRANCH  15  18
HETATM   18  O3  NAR A1352       5.525   6.677   4.006  1.00 64.59    -0.361 OA
HETATM   19  H04 NAR A1352       6.176   7.365   3.851  1.00 64.59     0.217 HD
ENDBRANCH  15  18
ENDBRANCH  11  12
BRANCH   3  20
HETATM   20  O4  NAR A1352       2.044   1.117  -4.861  1.00 53.34    -0.361 OA
HETATM   21  H05 NAR A1352       2.947   0.895  -4.622  1.00 53.34     0.217 HD
ENDBRANCH   3  20
BRANCH   6  22
HETATM   22  O5  NAR A1352      -0.177   4.898  -5.253  1.00 54.80    -0.360 OA
HETATM   23  H06 NAR A1352      -0.069   4.580  -6.152  1.00 54.80     0.217 HD
ENDBRANCH   6  22
TORSDOF 4
