REMARK  4 active torsions:
REMARK  status: ('A' for Active; 'I' for Inactive)
REMARK    1  A    between atoms: C2_3  and  O4_8 
REMARK    2  A    between atoms: O3_6  and  C13_18 
REMARK    3  A    between atoms: C4_7  and  O5_10 
REMARK    4  A    between atoms: C9_14  and  C10_15 
ROOT
HETATM    1  C1  NAR A1352      -2.705   1.520   3.736  1.00 54.80     0.074 A 
HETATM    2  O1  NAR A1352      -2.614   3.101   5.547  1.00 58.89    -0.340 OA
HETATM    3  C2  NAR A1352      -2.968   0.200   3.316  1.00 52.34     0.071 A 
HETATM    4  O2  NAR A1352      -3.715   0.132   8.264  1.00 60.91    -0.292 OA
HETATM    5  C3  NAR A1352      -3.368  -0.777   4.140  1.00 53.66     0.074 A 
HETATM    6  C4  NAR A1352      -3.568  -0.552   5.451  1.00 54.18     0.085 A 
HETATM    7  C5  NAR A1352      -3.312   0.798   6.006  1.00 54.76     0.076 A 
HETATM    8  C6  NAR A1352      -2.858   1.840   5.073  1.00 54.15     0.089 A 
HETATM    9  C7  NAR A1352      -3.436   1.105   7.480  1.00 58.97     0.167 C 
HETATM   10  C8  NAR A1352      -3.087   2.579   7.918  1.00 58.10     0.121 C 
HETATM   11  C9  NAR A1352      -3.268   3.581   6.756  1.00 61.68     0.169 C 
ENDROOT
BRANCH  11  12
HETATM   12  C10 NAR A1352      -2.871   5.045   6.980  1.00 64.67    -0.028 A 
HETATM   13  C11 NAR A1352      -1.742   5.515   7.693  1.00 63.55     0.012 A 
HETATM   14  C12 NAR A1352      -1.506   6.889   7.814  1.00 62.00     0.037 A 
HETATM   15  C13 NAR A1352      -2.382   7.847   7.274  1.00 63.22     0.065 A 
HETATM   16  C14 NAR A1352      -3.511   7.413   6.597  1.00 62.68     0.037 A 
HETATM   17  C15 NAR A1352      -3.743   6.038   6.445  1.00 64.40     0.012 A 
BRANCH  15  18
HETATM   18  O3  NAR A1352      -2.165   9.218   7.410  1.00 64.59    -0.361 OA
HETATM   19  H04 NAR A1352      -2.978   9.645   7.689  1.00 64.59     0.217 HD
ENDBRANCH  15  18
ENDBRANCH  11  12
BRANCH   3  20
HETATM   20  O4  NAR A1352      -3.273  -0.134   2.066  1.00 53.34    -0.361 OA
HETATM   21  H05 NAR A1352      -2.469  -0.196   1.545  1.00 53.34     0.217 HD
ENDBRANCH   3  20
BRANCH   6  22
HETATM   22  O5  NAR A1352      -3.991  -1.595   6.157  1.00 54.80    -0.360 OA
HETATM   23  H06 NAR A1352      -3.349  -1.801   6.841  1.00 54.80     0.217 HD
ENDBRANCH   6  22
TORSDOF 4
