REMARK  4 active torsions:
REMARK  status: ('A' for Active; 'I' for Inactive)
REMARK    1  A    between atoms: C2_3  and  O4_8 
REMARK    2  A    between atoms: O3_6  and  C13_18 
REMARK    3  A    between atoms: C4_7  and  O5_10 
REMARK    4  A    between atoms: C9_14  and  C10_15 
ROOT
HETATM    1  C1  NAR A1352      -4.931   2.936  -1.588  1.00 54.80     0.074 A 
HETATM    2  O1  NAR A1352      -5.643   5.204  -1.954  1.00 58.89    -0.340 OA
HETATM    3  C2  NAR A1352      -3.949   2.060  -1.083  1.00 52.34     0.071 A 
HETATM    4  O2  NAR A1352      -2.110   6.641  -0.260  1.00 60.91    -0.292 OA
HETATM    5  C3  NAR A1352      -2.820   2.470  -0.490  1.00 53.66     0.074 A 
HETATM    6  C4  NAR A1352      -2.554   3.777  -0.317  1.00 54.18     0.085 A 
HETATM    7  C5  NAR A1352      -3.512   4.789  -0.818  1.00 54.76     0.076 A 
HETATM    8  C6  NAR A1352      -4.731   4.300  -1.479  1.00 54.15     0.089 A 
HETATM    9  C7  NAR A1352      -3.243   6.273  -0.733  1.00 58.97     0.167 C 
HETATM   10  C8  NAR A1352      -4.341   7.219  -1.353  1.00 58.10     0.121 C 
HETATM   11  C9  NAR A1352      -5.729   6.542  -1.386  1.00 61.68     0.169 C 
ENDROOT
BRANCH  11  12
HETATM   12  C10 NAR A1352      -6.892   7.284  -2.054  1.00 64.67    -0.028 A 
HETATM   13  C11 NAR A1352      -7.789   8.185  -1.432  1.00 63.55     0.012 A 
HETATM   14  C12 NAR A1352      -8.808   8.792  -2.174  1.00 62.00     0.037 A 
HETATM   15  C13 NAR A1352      -9.007   8.511  -3.538  1.00 63.22     0.065 A 
HETATM   16  C14 NAR A1352      -8.161   7.609  -4.164  1.00 62.68     0.037 A 
HETATM   17  C15 NAR A1352      -7.118   7.017  -3.436  1.00 64.40     0.012 A 
BRANCH  15  18
HETATM   18  O3  NAR A1352     -10.035   9.094  -4.278  1.00 64.59    -0.361 OA
HETATM   19  H04 NAR A1352     -10.864   9.004  -3.803  1.00 64.59     0.217 HD
ENDBRANCH  15  18
ENDBRANCH  11  12
BRANCH   3  20
HETATM   20  O4  NAR A1352      -4.186   0.797  -0.739  1.00 53.34    -0.361 OA
HETATM   21  H05 NAR A1352      -3.569   0.220  -1.193  1.00 53.34     0.217 HD
ENDBRANCH   3  20
BRANCH   6  22
HETATM   22  O5  NAR A1352      -1.415   4.055   0.310  1.00 54.80    -0.360 OA
HETATM   23  H06 NAR A1352      -1.286   5.006   0.335  1.00 54.80     0.217 HD
ENDBRANCH   6  22
TORSDOF 4
