REMARK  Name = LIGAND
REMARK  15 active torsions:
REMARK  status: ('A' for Active; 'I' for Inactive)
REMARK    1  A    between atoms: N_1  and  C_10
REMARK    2  A    between atoms: C_3  and  C_39
REMARK    3  A    between atoms: C_8  and  C_34
REMARK    4  A    between atoms: C_10  and  C_12
REMARK    5  A    between atoms: C_10  and  C_21
REMARK    6  A    between atoms: C_12  and  C_13
REMARK    7  A    between atoms: C_12  and  C_17
REMARK    8  A    between atoms: C_12  and  C_46
REMARK    9  A    between atoms: C_22  and  N_50
REMARK   10  A    between atoms: C_28  and  C_30
REMARK   11  A    between atoms: C_30  and  O_32
REMARK   12  A    between atoms: C_30  and  C_34
REMARK   13  A    between atoms: C_34  and  C_36
REMARK   14  A    between atoms: C_36  and  C_39
REMARK   15  A    between atoms: C_39  and  C_41
REMARK                            x       y       z     vdW  Elec       q    Type
REMARK                         _______ _______ _______ _____ _____    ______ ____
ROOT
ATOM      1  N   UNL     1       1.055   4.053  -4.483  0.00  0.00    -0.303 N 
ATOM      2  H   UNL     1       1.378   3.177  -4.047  0.00  0.00    +0.149 HD
ATOM      3  C   UNL     1       1.751   4.644  -5.467  0.00  0.00    +0.220 C 
ATOM      4  O   UNL     1       1.440   5.698  -6.020  0.00  0.00    -0.275 OA
ENDROOT
BRANCH   1   5
ATOM      5  C   UNL     1      -0.175   4.705  -4.060  0.00  0.00    +0.164 C 
BRANCH   5   6
ATOM      6  C   UNL     1       0.046   5.599  -2.851  0.00  0.00    +0.234 C 
ATOM      7  N   UNL     1       0.714   5.000  -1.845  0.00  0.00    -0.317 N 
ATOM      8  H   UNL     1       0.989   4.009  -1.907  0.00  0.00    +0.148 HD
ATOM      9  C   UNL     1       1.037   5.797  -0.665  0.00  0.00    +0.128 C 
ATOM     10  O   UNL     1      -0.384   6.753  -2.837  0.00  0.00    -0.274 OA
ENDBRANCH   5   6
BRANCH   5  11
ATOM     11  C   UNL     1      -1.248   3.647  -3.771  0.00  0.00    -0.011 C 
ATOM     12  C   UNL     1      -2.391   4.307  -2.979  0.00  0.00    +0.013 C 
ATOM     13  C   UNL     1      -0.642   2.502  -2.942  0.00  0.00    +0.013 C 
ATOM     14  C   UNL     1      -1.798   3.092  -5.098  0.00  0.00    +0.013 C 
ENDBRANCH   5  11
ENDBRANCH   1   5
BRANCH   3  15
ATOM     15  C   UNL     1       2.998   3.878  -5.881  0.00  0.00    +0.110 C 
BRANCH  15  16
ATOM     16  C   UNL     1       4.034   4.845  -6.472  0.00  0.00    +0.018 C 
BRANCH  16  17
ATOM     17  C   UNL     1       5.302   5.013  -5.620  0.00  0.00    -0.016 C 
ATOM     18  C   UNL     1       6.534   5.086  -6.521  0.00  0.00    +0.007 C 
ATOM     19  C   UNL     1       5.462   3.876  -4.630  0.00  0.00    +0.007 C 
ENDBRANCH  16  17
ENDBRANCH  15  16
BRANCH  15  20
ATOM     20  C   UNL     1       2.608   2.811  -6.902  0.00  0.00    +0.178 C 
BRANCH  20  21
ATOM     21  C   UNL     1       2.304   1.487  -6.258  0.00  0.00    +0.085 C 
ATOM     22  O   UNL     1       1.146   1.161  -6.005  0.00  0.00    -0.539 OA
ATOM     23  N   UNL     1       3.355   0.706  -5.966  0.00  0.00    -0.309 N 
ATOM     24  H   UNL     1       4.325   0.888  -6.262  0.00  0.00    +0.155 HD
ATOM     25  O   UNL     1       2.950  -0.374  -5.214  0.00  0.00    -0.423 OA
ENDBRANCH  20  21
BRANCH  20  26
ATOM     26  O   UNL     1       1.526   3.244  -7.713  0.00  0.00    -0.385 OA
ATOM     27  H   UNL     1       0.664   3.270  -7.151  0.00  0.00    +0.210 HD
ENDBRANCH  20  26
ENDBRANCH  15  20
ENDBRANCH   3  15
TORSDOF 9
