REMARK  Name = LIGAND
REMARK  15 active torsions:
REMARK  status: ('A' for Active; 'I' for Inactive)
REMARK    1  A    between atoms: N_1  and  C_10
REMARK    2  A    between atoms: C_3  and  C_39
REMARK    3  A    between atoms: C_8  and  C_34
REMARK    4  A    between atoms: C_10  and  C_12
REMARK    5  A    between atoms: C_10  and  C_21
REMARK    6  A    between atoms: C_12  and  C_13
REMARK    7  A    between atoms: C_12  and  C_17
REMARK    8  A    between atoms: C_12  and  C_46
REMARK    9  A    between atoms: C_22  and  N_50
REMARK   10  A    between atoms: C_28  and  C_30
REMARK   11  A    between atoms: C_30  and  O_32
REMARK   12  A    between atoms: C_30  and  C_34
REMARK   13  A    between atoms: C_34  and  C_36
REMARK   14  A    between atoms: C_36  and  C_39
REMARK   15  A    between atoms: C_39  and  C_41
REMARK                            x       y       z     vdW  Elec       q    Type
REMARK                         _______ _______ _______ _____ _____    ______ ____
ROOT
ATOM      1  N   UNL     1      -1.081   1.438  -4.997  0.00  0.00    -0.303 N 
ATOM      2  H   UNL     1      -0.544   2.241  -4.639  0.00  0.00    +0.149 HD
ATOM      3  C   UNL     1      -1.016   1.071  -6.286  0.00  0.00    +0.220 C 
ATOM      4  O   UNL     1      -1.643   0.138  -6.789  0.00  0.00    -0.275 OA
ENDROOT
BRANCH   1   5
ATOM      5  C   UNL     1      -1.945   0.652  -4.128  0.00  0.00    +0.164 C 
BRANCH   5   6
ATOM      6  C   UNL     1      -3.090   1.482  -3.570  0.00  0.00    +0.234 C 
ATOM      7  N   UNL     1      -2.799   2.791  -3.434  0.00  0.00    -0.317 N 
ATOM      8  H   UNL     1      -1.858   3.150  -3.651  0.00  0.00    +0.148 HD
ATOM      9  C   UNL     1      -3.855   3.685  -2.969  0.00  0.00    +0.128 C 
ATOM     10  O   UNL     1      -4.160   0.952  -3.268  0.00  0.00    -0.274 OA
ENDBRANCH   5   6
BRANCH   5  11
ATOM     11  C   UNL     1      -1.114   0.032  -2.997  0.00  0.00    -0.011 C 
ATOM     12  C   UNL     1      -0.046  -0.886  -3.618  0.00  0.00    +0.013 C 
ATOM     13  C   UNL     1      -2.025  -0.790  -2.071  0.00  0.00    +0.013 C 
ATOM     14  C   UNL     1      -0.424   1.149  -2.190  0.00  0.00    +0.013 C 
ENDBRANCH   5  11
ENDBRANCH   1   5
BRANCH   3  15
ATOM     15  C   UNL     1      -0.060   1.912  -7.117  0.00  0.00    +0.110 C 
BRANCH  15  16
ATOM     16  C   UNL     1       0.628   2.955  -6.226  0.00  0.00    +0.018 C 
BRANCH  16  17
ATOM     17  C   UNL     1       2.146   3.069  -6.440  0.00  0.00    -0.016 C 
ATOM     18  C   UNL     1       2.641   4.436  -5.972  0.00  0.00    +0.007 C 
ATOM     19  C   UNL     1       2.519   2.863  -7.895  0.00  0.00    +0.007 C 
ENDBRANCH  16  17
ENDBRANCH  15  16
BRANCH  15  20
ATOM     20  C   UNL     1      -0.844   2.589  -8.241  0.00  0.00    +0.178 C 
BRANCH  20  21
ATOM     21  C   UNL     1      -1.135   1.652  -9.380  0.00  0.00    +0.085 C 
ATOM     22  O   UNL     1      -0.229   1.039  -9.939  0.00  0.00    -0.539 OA
ATOM     23  N   UNL     1      -2.419   1.542  -9.753  0.00  0.00    -0.309 N 
ATOM     24  H   UNL     1      -3.218   1.946  -9.244  0.00  0.00    +0.155 HD
ATOM     25  O   UNL     1      -2.514   0.811 -10.916  0.00  0.00    -0.423 OA
ENDBRANCH  20  21
BRANCH  20  26
ATOM     26  O   UNL     1      -2.036   3.184  -7.751  0.00  0.00    -0.385 OA
ATOM     27  H   UNL     1      -1.870   3.558  -6.807  0.00  0.00    +0.210 HD
ENDBRANCH  20  26
ENDBRANCH  15  20
ENDBRANCH   3  15
TORSDOF 9
