REMARK  Name = LIGAND
REMARK  15 active torsions:
REMARK  status: ('A' for Active; 'I' for Inactive)
REMARK    1  A    between atoms: N_1  and  C_10
REMARK    2  A    between atoms: C_3  and  C_39
REMARK    3  A    between atoms: C_8  and  C_34
REMARK    4  A    between atoms: C_10  and  C_12
REMARK    5  A    between atoms: C_10  and  C_21
REMARK    6  A    between atoms: C_12  and  C_13
REMARK    7  A    between atoms: C_12  and  C_17
REMARK    8  A    between atoms: C_12  and  C_46
REMARK    9  A    between atoms: C_22  and  N_50
REMARK   10  A    between atoms: C_28  and  C_30
REMARK   11  A    between atoms: C_30  and  O_32
REMARK   12  A    between atoms: C_30  and  C_34
REMARK   13  A    between atoms: C_34  and  C_36
REMARK   14  A    between atoms: C_36  and  C_39
REMARK   15  A    between atoms: C_39  and  C_41
REMARK                            x       y       z     vdW  Elec       q    Type
REMARK                         _______ _______ _______ _____ _____    ______ ____
ROOT
ATOM      1  N   UNL     1      -2.238  -3.439   1.629  0.00  0.00    -0.303 N 
ATOM      2  H   UNL     1      -2.090  -2.974   2.536  0.00  0.00    +0.149 HD
ATOM      3  C   UNL     1      -1.385  -4.367   1.169  0.00  0.00    +0.220 C 
ATOM      4  O   UNL     1      -1.486  -4.949   0.089  0.00  0.00    -0.275 OA
ENDROOT
BRANCH   1   5
ATOM      5  C   UNL     1      -3.383  -3.120   0.788  0.00  0.00    +0.164 C 
BRANCH   5   6
ATOM      6  C   UNL     1      -3.443  -1.638   0.455  0.00  0.00    +0.234 C 
ATOM      7  N   UNL     1      -3.342  -0.833   1.531  0.00  0.00    -0.317 N 
ATOM      8  H   UNL     1      -3.283  -1.223   2.482  0.00  0.00    +0.148 HD
ATOM      9  C   UNL     1      -3.321   0.610   1.309  0.00  0.00    +0.128 C 
ATOM     10  O   UNL     1      -3.590  -1.262  -0.709  0.00  0.00    -0.274 OA
ENDBRANCH   5   6
BRANCH   5  11
ATOM     11  C   UNL     1      -4.675  -3.580   1.477  0.00  0.00    -0.011 C 
ATOM     12  C   UNL     1      -4.447  -3.582   2.999  0.00  0.00    +0.013 C 
ATOM     13  C   UNL     1      -5.039  -4.999   1.008  0.00  0.00    +0.013 C 
ATOM     14  C   UNL     1      -5.820  -2.609   1.130  0.00  0.00    +0.013 C 
ENDBRANCH   5  11
ENDBRANCH   1   5
BRANCH   3  15
ATOM     15  C   UNL     1      -0.242  -4.676   2.124  0.00  0.00    +0.110 C 
BRANCH  15  16
ATOM     16  C   UNL     1       1.100  -4.336   1.462  0.00  0.00    +0.018 C 
BRANCH  16  17
ATOM     17  C   UNL     1       1.088  -3.041   0.635  0.00  0.00    -0.016 C 
ATOM     18  C   UNL     1       2.090  -3.143  -0.514  0.00  0.00    +0.007 C 
ATOM     19  C   UNL     1       1.415  -1.832   1.490  0.00  0.00    +0.007 C 
ENDBRANCH  16  17
ENDBRANCH  15  16
BRANCH  15  20
ATOM     20  C   UNL     1      -0.301  -6.155   2.505  0.00  0.00    +0.178 C 
BRANCH  20  21
ATOM     21  C   UNL     1       0.492  -6.459   3.745  0.00  0.00    +0.085 C 
ATOM     22  O   UNL     1      -0.042  -6.454   4.851  0.00  0.00    -0.539 OA
ATOM     23  N   UNL     1       1.798  -6.714   3.575  0.00  0.00    -0.309 N 
ATOM     24  H   UNL     1       2.260  -6.840   2.663  0.00  0.00    +0.155 HD
ATOM     25  O   UNL     1       2.431  -6.782   4.795  0.00  0.00    -0.423 OA
ENDBRANCH  20  21
BRANCH  20  26
ATOM     26  O   UNL     1      -1.643  -6.600   2.635  0.00  0.00    -0.385 OA
ATOM     27  H   UNL     1      -1.817  -7.365   1.968  0.00  0.00    +0.210 HD
ENDBRANCH  20  26
ENDBRANCH  15  20
ENDBRANCH   3  15
TORSDOF 9
