REMARK  Name = 2xy9_ligand
REMARK  18 active torsions:
REMARK  status: ('A' for Active; 'I' for Inactive)
REMARK    1  A    between atoms: CBP_6  and  CBB_7
REMARK    2  A    between atoms: CBB_7  and  OBJ_8
REMARK    3  A    between atoms: OBJ_8  and  CBM_9
REMARK    4  A    between atoms: NBI_11  and  CBX_12
REMARK    5  A    between atoms: CBX_12  and  CBE_13
REMARK    6  A    between atoms: CBX_12  and  PBY_20
REMARK    7  A    between atoms: CBE_13  and  CBQ_14
REMARK    8  A    between atoms: PBY_20  and  CBF_36
REMARK    9  A    between atoms: N_23  and  CA_24
REMARK   10  A    between atoms: CA_24  and  C_25
REMARK   11  A    between atoms: CA_24  and  CB_28
REMARK   12  A    between atoms: CB_28  and  CG_29
REMARK   13  A    between atoms: CZ_32  and  OH_33
REMARK   14  A    between atoms: CBF_36  and  CBV_37
REMARK   15  A    between atoms: CBV_37  and  CBN_38
REMARK   16  A    between atoms: CBV_37  and  CBC_40
REMARK   17  A    between atoms: CBC_40  and  CBS_41
REMARK   18  A    between atoms: CBU_45  and  CBT_46
REMARK                            x       y       z     vdW  Elec       q    Type
REMARK                         _______ _______ _______ _____ _____    ______ ____
ROOT
ATOM      1  C   UNK A   0      -6.013  -4.377  -4.090  0.00  0.00    +0.137 C 
ENDROOT
BRANCH   1   2
ATOM      2  C   UNK A   0      -6.197  -4.499  -5.615  0.00  0.00    +0.185 C 
ATOM      3  O   UNK A   0      -7.298  -4.302  -6.129  0.00  0.00    -0.396 OA
ATOM      4  N   TYR A   1      -5.114  -4.857  -6.309  0.00  0.00    -0.269 N 
ATOM      5  H   TYR A   1      -4.217  -4.931  -5.828  0.00  0.00    +0.188 HD
BRANCH   4   6
ATOM      6  CA  TYR A   1      -5.180  -5.148  -7.748  0.00  0.00    +0.177 C 
BRANCH   6   7
ATOM      7  C   TYR A   1      -5.397  -6.670  -7.900  0.00  0.00    +0.062 C 
ATOM      8  OXT TYR A   1      -4.787  -7.447  -7.135  0.00  0.00    -0.567 OA
ATOM      9  O   TYR A   1      -6.129  -7.035  -8.838  0.00  0.00    -0.567 OA
ENDBRANCH   6   7
BRANCH   6  10
ATOM     10  CB  TYR A   1      -3.927  -4.693  -8.505  0.00  0.00    +0.100 C 
BRANCH  10  11
ATOM     11  CG  TYR A   1      -3.834  -3.203  -8.856  0.00  0.00    -0.050 A 
ATOM     12  CD2 TYR A   1      -2.825  -2.746  -9.710  0.00  0.00    -0.016 A 
ATOM     13  CE2 TYR A   1      -2.728  -1.388 -10.013  0.00  0.00    +0.013 A 
ATOM     14  CZ  TYR A   1      -3.637  -0.485  -9.464  0.00  0.00    +0.081 A 
ATOM     15  CE1 TYR A   1      -4.645  -0.936  -8.609  0.00  0.00    +0.013 A 
ATOM     16  CD1 TYR A   1      -4.738  -2.298  -8.300  0.00  0.00    -0.016 A 
BRANCH  14  17
ATOM     17  OH  TYR A   1      -3.529   0.842  -9.766  0.00  0.00    -0.338 OA
ATOM     18  HH  TYR A   1      -3.850   1.364  -9.027  0.00  0.00    +0.246 HD
ENDBRANCH  14  17
ENDBRANCH  10  11
ENDBRANCH   6  10
ENDBRANCH   4   6
ENDBRANCH   1   2
BRANCH   1  19
ATOM     19  C   UNK A   0      -4.542  -4.060  -3.743  0.00  0.00    +0.137 C 
BRANCH  19  20
ATOM     20  P   UNK A   0      -4.236  -2.318  -3.329  0.00  0.00    +0.015 P 
ATOM     21  O   UNK A   0      -4.618  -1.932  -1.948  0.00  0.00    -0.617 OA
ATOM     22  O   UNK A   0      -4.972  -1.490  -4.467  0.00  0.00    -0.617 OA
BRANCH  20  23
ATOM     23  C   UNK A   0      -2.455  -1.947  -3.597  0.00  0.00    +0.196 C 
BRANCH  23  25
ATOM     24  C   UNK A   0      -0.615  -3.236  -4.636  0.00  0.00    +0.323 C 
ATOM     25  N   UNK A   0      -1.914  -2.980  -4.486  0.00  0.00    -0.242 N 
ATOM     26  H   UNK A   0      -2.574  -3.539  -5.025  0.00  0.00    +0.189 HD
ATOM     27  O   UNK A   0       0.286  -2.628  -4.047  0.00  0.00    -0.377 OA
BRANCH  24  28
ATOM     28  O   UNK A   0      -0.345  -4.227  -5.529  0.00  0.00    -0.251 OA
BRANCH  28  29
ATOM     29  C   UNK A   0      -0.755  -4.146  -6.907  0.00  0.00    +0.267 C 
BRANCH  29  31
ATOM     30  C   UNK A   0      -0.294  -6.421  -7.587  0.00  0.00    -0.002 A 
ATOM     31  C   UNK A   0      -0.103  -5.047  -7.765  0.00  0.00    -0.013 A 
ATOM     32  C   UNK A   0       0.707  -4.595  -8.804  0.00  0.00    -0.002 A 
ATOM     33  C   UNK A   0       1.331  -5.513  -9.654  0.00  0.00    -0.009 A 
ATOM     34  C   UNK A   0       1.146  -6.882  -9.474  0.00  0.00    -0.013 A 
ATOM     35  C   UNK A   0       0.330  -7.336  -8.441  0.00  0.00    -0.009 A 
ENDBRANCH  29  31
ENDBRANCH  28  29
ENDBRANCH  24  28
ENDBRANCH  23  25
BRANCH  23  36
ATOM     36  C   UNK A   0      -2.223  -0.568  -4.229  0.00  0.00    +0.114 C 
BRANCH  36  37
ATOM     37  C   UNK A   0      -2.069   0.519  -3.149  0.00  0.00    -0.039 A 
ATOM     38  C   UNK A   0      -3.195   1.046  -2.511  0.00  0.00    -0.004 A 
ATOM     39  C   UNK A   0      -3.055   2.039  -1.538  0.00  0.00    -0.009 A 
ATOM     40  C   UNK A   0      -1.781   2.502  -1.199  0.00  0.00    -0.013 A 
ATOM     41  C   UNK A   0      -0.655   1.981  -1.837  0.00  0.00    -0.009 A 
ATOM     42  C   UNK A   0      -0.797   0.992  -2.813  0.00  0.00    -0.004 A 
ENDBRANCH  36  37
ENDBRANCH  23  36
ENDBRANCH  20  23
ENDBRANCH  19  20
ENDBRANCH   1  19
BRANCH   1  43
ATOM     43  C   UNK A   0      -6.531  -5.613  -3.334  0.00  0.00    +0.145 C 
BRANCH  43  44
ATOM     44  C   UNK A   0      -7.931  -5.483  -2.699  0.00  0.00    +0.141 A 
ATOM     45  O   UNK A   0      -8.825  -4.604  -3.222  0.00  0.00    -0.167 OA
ATOM     46  N   UNK A   0      -9.982  -4.699  -2.438  0.00  0.00    -0.152 NA
ATOM     47  C   UNK A   0      -9.756  -5.607  -1.496  0.00  0.00    +0.043 A 
ATOM     48  C   UNK A   0      -8.508  -6.088  -1.656  0.00  0.00    +0.002 A 
BRANCH  47  49
ATOM     49  C   UNK A   0     -10.702  -5.972  -0.533  0.00  0.00    -0.015 A 
ATOM     50  C   UNK A   0     -10.920  -7.322  -0.252  0.00  0.00    +0.006 A 
ATOM     51  C   UNK A   0     -11.860  -7.703   0.710  0.00  0.00    -0.001 A 
ATOM     52  C   UNK A   0     -12.578  -6.730   1.412  0.00  0.00    -0.002 A 
ATOM     53  C   UNK A   0     -12.353  -5.383   1.139  0.00  0.00    -0.001 A 
ATOM     54  C   UNK A   0     -11.420  -5.009   0.171  0.00  0.00    +0.006 A 
ENDBRANCH  47  49
ENDBRANCH  43  44
ENDBRANCH   1  43
TORSDOF 18
