REMARK  Name = 2xy9_ligand
REMARK  18 active torsions:
REMARK  status: ('A' for Active; 'I' for Inactive)
REMARK    1  A    between atoms: CBP_6  and  CBB_7
REMARK    2  A    between atoms: CBB_7  and  OBJ_8
REMARK    3  A    between atoms: OBJ_8  and  CBM_9
REMARK    4  A    between atoms: NBI_11  and  CBX_12
REMARK    5  A    between atoms: CBX_12  and  CBE_13
REMARK    6  A    between atoms: CBX_12  and  PBY_20
REMARK    7  A    between atoms: CBE_13  and  CBQ_14
REMARK    8  A    between atoms: PBY_20  and  CBF_36
REMARK    9  A    between atoms: N_23  and  CA_24
REMARK   10  A    between atoms: CA_24  and  C_25
REMARK   11  A    between atoms: CA_24  and  CB_28
REMARK   12  A    between atoms: CB_28  and  CG_29
REMARK   13  A    between atoms: CZ_32  and  OH_33
REMARK   14  A    between atoms: CBF_36  and  CBV_37
REMARK   15  A    between atoms: CBV_37  and  CBN_38
REMARK   16  A    between atoms: CBV_37  and  CBC_40
REMARK   17  A    between atoms: CBC_40  and  CBS_41
REMARK   18  A    between atoms: CBU_45  and  CBT_46
REMARK                            x       y       z     vdW  Elec       q    Type
REMARK                         _______ _______ _______ _____ _____    ______ ____
ROOT
ATOM      1  C   UNK A   0       0.403   7.431   5.224  0.00  0.00    +0.137 C 
ENDROOT
BRANCH   1   2
ATOM      2  C   UNK A   0       0.839   8.256   6.450  0.00  0.00    +0.185 C 
ATOM      3  O   UNK A   0       0.072   8.417   7.400  0.00  0.00    -0.396 OA
ATOM      4  N   TYR A   1       2.059   8.795   6.390  0.00  0.00    -0.269 N 
ATOM      5  H   TYR A   1       2.668   8.559   5.606  0.00  0.00    +0.188 HD
BRANCH   4   6
ATOM      6  CA  TYR A   1       2.546   9.720   7.423  0.00  0.00    +0.177 C 
BRANCH   6   7
ATOM      7  C   TYR A   1       2.472  11.147   6.836  0.00  0.00    +0.062 C 
ATOM      8  OXT TYR A   1       2.098  12.084   7.573  0.00  0.00    -0.567 OA
ATOM      9  O   TYR A   1       2.730  11.263   5.624  0.00  0.00    -0.567 OA
ENDBRANCH   6   7
BRANCH   6  10
ATOM     10  CB  TYR A   1       3.970   9.391   7.891  0.00  0.00    +0.100 C 
BRANCH  10  11
ATOM     11  CG  TYR A   1       4.103   8.609   9.203  0.00  0.00    -0.050 A 
ATOM     12  CD2 TYR A   1       3.018   7.875   9.693  0.00  0.00    -0.016 A 
ATOM     13  CE2 TYR A   1       3.132   7.179  10.897  0.00  0.00    +0.013 A 
ATOM     14  CZ  TYR A   1       4.327   7.215  11.612  0.00  0.00    +0.081 A 
ATOM     15  CE1 TYR A   1       5.412   7.949  11.128  0.00  0.00    +0.013 A 
ATOM     16  CD1 TYR A   1       5.296   8.653   9.924  0.00  0.00    -0.016 A 
BRANCH  14  17
ATOM     17  OH  TYR A   1       4.425   6.533  12.790  0.00  0.00    -0.338 OA
ATOM     18  HH  TYR A   1       4.686   5.627  12.614  0.00  0.00    +0.246 HD
ENDBRANCH  14  17
ENDBRANCH  10  11
ENDBRANCH   6  10
ENDBRANCH   4   6
ENDBRANCH   1   2
BRANCH   1  19
ATOM     19  C   UNK A   0      -1.025   7.823   4.785  0.00  0.00    +0.137 C 
BRANCH  19  20
ATOM     20  P   UNK A   0      -1.636   6.905   3.342  0.00  0.00    +0.015 P 
ATOM     21  O   UNK A   0      -2.052   5.510   3.625  0.00  0.00    -0.617 OA
ATOM     22  O   UNK A   0      -0.485   7.036   2.255  0.00  0.00    -0.617 OA
BRANCH  20  23
ATOM     23  C   UNK A   0      -3.045   7.826   2.604  0.00  0.00    +0.196 C 
BRANCH  23  25
ATOM     24  C   UNK A   0      -4.989   8.836   3.757  0.00  0.00    +0.323 C 
ATOM     25  N   UNK A   0      -3.680   8.602   3.675  0.00  0.00    -0.242 N 
ATOM     26  H   UNK A   0      -3.081   8.986   4.405  0.00  0.00    +0.189 HD
ATOM     27  O   UNK A   0      -5.820   8.434   2.936  0.00  0.00    -0.377 OA
BRANCH  24  28
ATOM     28  O   UNK A   0      -5.350   9.595   4.828  0.00  0.00    -0.251 OA
BRANCH  28  29
ATOM     29  C   UNK A   0      -6.681  10.124   4.976  0.00  0.00    +0.267 C 
BRANCH  29  31
ATOM     30  C   UNK A   0      -8.096  11.553   6.319  0.00  0.00    -0.002 A 
ATOM     31  C   UNK A   0      -6.881  10.884   6.140  0.00  0.00    -0.013 A 
ATOM     32  C   UNK A   0      -5.904  10.958   7.130  0.00  0.00    -0.002 A 
ATOM     33  C   UNK A   0      -6.136  11.708   8.287  0.00  0.00    -0.009 A 
ATOM     34  C   UNK A   0      -7.344  12.380   8.463  0.00  0.00    -0.013 A 
ATOM     35  C   UNK A   0      -8.325  12.300   7.479  0.00  0.00    -0.009 A 
ENDBRANCH  29  31
ENDBRANCH  28  29
ENDBRANCH  24  28
ENDBRANCH  23  25
BRANCH  23  36
ATOM     36  C   UNK A   0      -2.612   8.781   1.483  0.00  0.00    +0.114 C 
BRANCH  36  37
ATOM     37  C   UNK A   0      -3.441   8.550   0.206  0.00  0.00    -0.039 A 
ATOM     38  C   UNK A   0      -3.148   9.257  -0.963  0.00  0.00    -0.004 A 
ATOM     39  C   UNK A   0      -3.907   9.054  -2.119  0.00  0.00    -0.009 A 
ATOM     40  C   UNK A   0      -4.960   8.135  -2.105  0.00  0.00    -0.013 A 
ATOM     41  C   UNK A   0      -5.256   7.430  -0.937  0.00  0.00    -0.009 A 
ATOM     42  C   UNK A   0      -4.500   7.639   0.219  0.00  0.00    -0.004 A 
ENDBRANCH  36  37
ENDBRANCH  23  36
ENDBRANCH  20  23
ENDBRANCH  19  20
ENDBRANCH   1  19
BRANCH   1  43
ATOM     43  C   UNK A   0       0.541   5.916   5.456  0.00  0.00    +0.145 C 
BRANCH  43  44
ATOM     44  C   UNK A   0       1.971   5.393   5.700  0.00  0.00    +0.141 A 
ATOM     45  O   UNK A   0       2.520   4.509   4.827  0.00  0.00    -0.167 OA
ATOM     46  N   UNK A   0       3.800   4.212   5.313  0.00  0.00    -0.152 NA
ATOM     47  C   UNK A   0       3.977   4.907   6.431  0.00  0.00    +0.043 A 
ATOM     48  C   UNK A   0       2.865   5.630   6.666  0.00  0.00    +0.002 A 
BRANCH  47  49
ATOM     49  C   UNK A   0       5.152   4.865   7.187  0.00  0.00    -0.015 A 
ATOM     50  C   UNK A   0       5.085   4.962   8.579  0.00  0.00    +0.006 A 
ATOM     51  C   UNK A   0       6.251   4.919   9.349  0.00  0.00    -0.001 A 
ATOM     52  C   UNK A   0       7.494   4.760   8.731  0.00  0.00    -0.002 A 
ATOM     53  C   UNK A   0       7.560   4.653   7.344  0.00  0.00    -0.001 A 
ATOM     54  C   UNK A   0       6.394   4.706   6.579  0.00  0.00    +0.006 A 
ENDBRANCH  47  49
ENDBRANCH  43  44
ENDBRANCH   1  43
TORSDOF 18
