REMARK  Name = LIGAND
REMARK  12 active torsions:
REMARK  status: ('A' for Active; 'I' for Inactive)
REMARK    1  A    between atoms: C_2  and  N_4
REMARK    2  A    between atoms: C_2  and  C_47
REMARK    3  A    between atoms: C_2  and  C_51
REMARK    4  A    between atoms: C_8  and  N_13
REMARK    5  A    between atoms: N_13  and  C_15
REMARK    6  A    between atoms: C_20  and  C_25
REMARK    7  A    between atoms: N_28  and  CA_30
REMARK    8  A    between atoms: CA_30  and  CB_32
REMARK    9  A    between atoms: CA_30  and  C_42
REMARK   10  A    between atoms: CB_32  and  CG1_34
REMARK   11  A    between atoms: CB_32  and  CG2_38
REMARK   12  A    between atoms: C_42  and  O_45
REMARK                            x       y       z     vdW  Elec       q    Type
REMARK                         _______ _______ _______ _____ _____    ______ ____
ROOT
ATOM      1  N   UNL     1      25.276  -1.169  35.139  0.00  0.00    -0.197 NA
ATOM      2  C   UNL     1      25.330  -1.782  36.363  0.00  0.00    +0.156 A 
ATOM      3  C   UNL     1      24.703  -1.168  37.467  0.00  0.00    +0.148 A 
ATOM      4  N   UNL     1      24.506  -1.448  38.784  0.00  0.00    -0.231 NA
ATOM      5  C   UNL     1      23.747  -0.448  39.304  0.00  0.00    +0.201 A 
ATOM      6  N   UNL     1      23.403   0.499  38.380  0.00  0.00    -0.312 N 
ATOM      7  C   UNL     1      23.985   0.094  37.217  0.00  0.00    +0.167 A 
ATOM      8  N   UNL     1      23.944   0.680  35.886  0.00  0.00    -0.195 NA
ATOM      9  C   ACE A   0      24.631   0.042  34.892  0.00  0.00    +0.219 A 
ATOM     10  N   UNL     1      24.634   0.544  33.618  0.00  0.00    -0.308 N 
ATOM     11  H   UNL     1      24.160   1.427  33.381  0.00  0.00    +0.149 HD
ENDROOT
BRANCH   6  12
ATOM     12  C   UNL     1      22.647   1.733  38.714  0.00  0.00    +0.084 C 
ATOM     13  C   UNL     1      21.242   1.835  38.135  0.00  0.00    +0.030 C 
ATOM     14  C   UNL     1      23.469   2.882  38.159  0.00  0.00    +0.030 C 
ENDBRANCH   6  12
BRANCH   2  15
ATOM     15  N   UNL     1      25.989  -2.974  36.570  0.00  0.00    -0.298 N 
ATOM     16  H   UNL     1      25.848  -3.450  37.472  0.00  0.00    +0.154 HD
BRANCH  15  17
ATOM     17  C   UNL     1      26.816  -3.567  35.661  0.00  0.00    +0.034 A 
ATOM     18  C   UNL     1      26.394  -3.688  34.353  0.00  0.00    +0.044 A 
ATOM     19  C   UNL     1      27.224  -4.223  33.381  0.00  0.00    +0.057 A 
ATOM     20 CL   UNL     1      26.741  -4.336  31.942  0.00  0.00    -0.083 Cl
ATOM     21  C   UNL     1      28.578  -4.684  33.799  0.00  0.00    +0.082 A 
ATOM     22  C   UNL     1      28.982  -4.532  35.139  0.00  0.00    +0.018 A 
ATOM     23  C   UNL     1      28.107  -3.971  36.058  0.00  0.00    +0.024 A 
BRANCH  21  24
ATOM     24  C   UNL     1      29.510  -5.278  32.797  0.00  0.00    +0.388 C 
ATOM     25  O   UNL     1      29.667  -4.735  31.693  0.00  0.00    -0.241 OA
ATOM     26  O   UNL     1      30.135  -6.315  33.075  0.00  0.00    -0.241 OA
ENDBRANCH  21  24
ENDBRANCH  15  17
ENDBRANCH   2  15
BRANCH  10  27
ATOM     27  CA  UNL     1      25.347  -0.244  32.613  0.00  0.00    +0.101 C 
BRANCH  27  28
ATOM     28  CB  UNL     1      26.292   0.561  31.697  0.00  0.00    +0.005 C 
ATOM     29  CG2 UNL     1      26.099   0.340  30.202  0.00  0.00    +0.009 C 
ATOM     30  CG1 UNL     1      26.477   2.035  32.137  0.00  0.00    +0.009 C 
ENDBRANCH  27  28
BRANCH  27  31
ATOM     31  C   UNL     1      24.537  -1.374  31.951  0.00  0.00    +0.178 C 
BRANCH  31  32
ATOM     32  O   UNL     1      23.204  -0.945  31.865  0.00  0.00    -0.393 OA
ATOM     33  H   UNL     1      23.174   0.085  31.853  0.00  0.00    +0.209 HD
ENDBRANCH  31  32
ENDBRANCH  27  31
ENDBRANCH  10  27
TORSDOF 8
