REMARK  Name = LIGAND
REMARK  12 active torsions:
REMARK  status: ('A' for Active; 'I' for Inactive)
REMARK    1  A    between atoms: C_2  and  N_4
REMARK    2  A    between atoms: C_2  and  C_47
REMARK    3  A    between atoms: C_2  and  C_51
REMARK    4  A    between atoms: C_8  and  N_13
REMARK    5  A    between atoms: N_13  and  C_15
REMARK    6  A    between atoms: C_20  and  C_25
REMARK    7  A    between atoms: N_28  and  CA_30
REMARK    8  A    between atoms: CA_30  and  CB_32
REMARK    9  A    between atoms: CA_30  and  C_42
REMARK   10  A    between atoms: CB_32  and  CG1_34
REMARK   11  A    between atoms: CB_32  and  CG2_38
REMARK   12  A    between atoms: C_42  and  O_45
REMARK                            x       y       z     vdW  Elec       q    Type
REMARK                         _______ _______ _______ _____ _____    ______ ____
ROOT
ATOM      1  N   UNL     1       1.984  -3.041   0.473  0.00  0.00    -0.197 NA
ATOM      2  C   UNL     1       2.443  -2.046  -0.350  0.00  0.00    +0.156 A 
ATOM      3  C   UNL     1       3.662  -2.228  -1.034  0.00  0.00    +0.148 A 
ATOM      4  N   UNL     1       4.418  -1.533  -1.927  0.00  0.00    -0.231 NA
ATOM      5  C   UNL     1       5.483  -2.311  -2.253  0.00  0.00    +0.201 A 
ATOM      6  N   UNL     1       5.471  -3.525  -1.624  0.00  0.00    -0.312 N 
ATOM      7  C   UNL     1       4.354  -3.516  -0.846  0.00  0.00    +0.167 A 
ATOM      8  N   UNL     1       3.799  -4.542   0.024  0.00  0.00    -0.195 NA
ATOM      9  C   ACE A   0       2.643  -4.250   0.690  0.00  0.00    +0.219 A 
ATOM     10  N   UNL     1       2.071  -5.173   1.525  0.00  0.00    -0.308 N 
ATOM     11  H   UNL     1       2.510  -6.086   1.707  0.00  0.00    +0.149 HD
ENDROOT
BRANCH   6  12
ATOM     12  C   UNL     1       6.564  -4.523  -1.749  0.00  0.00    +0.084 C 
ATOM     13  C   UNL     1       6.600  -5.614  -0.687  0.00  0.00    +0.030 C 
ATOM     14  C   UNL     1       7.856  -3.731  -1.654  0.00  0.00    +0.030 C 
ENDBRANCH   6  12
BRANCH   2  15
ATOM     15  N   UNL     1       1.768  -0.858  -0.528  0.00  0.00    -0.298 N 
ATOM     16  H   UNL     1       1.870  -0.135   0.197  0.00  0.00    +0.154 HD
BRANCH  15  17
ATOM     17  C   UNL     1       0.975  -0.574  -1.602  0.00  0.00    +0.034 A 
ATOM     18  C   UNL     1       1.004   0.698  -2.136  0.00  0.00    +0.044 A 
ATOM     19  C   UNL     1       0.266   1.016  -3.265  0.00  0.00    +0.057 A 
ATOM     20 CL   UNL     1       0.322   2.422  -3.843  0.00  0.00    -0.083 Cl
ATOM     21  C   UNL     1      -0.576  -0.055  -3.870  0.00  0.00    +0.082 A 
ATOM     22  C   UNL     1      -0.570  -1.346  -3.308  0.00  0.00    +0.018 A 
ATOM     23  C   UNL     1       0.207  -1.601  -2.187  0.00  0.00    +0.024 A 
BRANCH  21  24
ATOM     24  C   UNL     1      -1.399   0.233  -5.080  0.00  0.00    +0.388 C 
ATOM     25  O   UNL     1      -2.532   0.724  -4.962  0.00  0.00    -0.241 OA
ATOM     26  O   UNL     1      -0.942  -0.013  -6.209  0.00  0.00    -0.241 OA
ENDBRANCH  21  24
ENDBRANCH  15  17
ENDBRANCH   2  15
BRANCH  10  27
ATOM     27  CA  UNL     1       0.803  -4.788   2.144  0.00  0.00    +0.101 C 
BRANCH  27  28
ATOM     28  CB  UNL     1       0.741  -4.961   3.676  0.00  0.00    +0.005 C 
ATOM     29  CG2 UNL     1       1.558  -6.118   4.237  0.00  0.00    +0.009 C 
ATOM     30  CG1 UNL     1       0.847  -3.627   4.456  0.00  0.00    +0.009 C 
ENDBRANCH  27  28
BRANCH  27  31
ATOM     31  C   UNL     1      -0.466  -5.158   1.353  0.00  0.00    +0.178 C 
BRANCH  31  32
ATOM     32  O   UNL     1      -0.080  -6.011   0.308  0.00  0.00    -0.393 OA
ATOM     33  H   UNL     1       0.669  -5.565  -0.241  0.00  0.00    +0.209 HD
ENDBRANCH  31  32
ENDBRANCH  27  31
ENDBRANCH  10  27
TORSDOF 8
