REMARK  Name = LIGAND
REMARK  12 active torsions:
REMARK  status: ('A' for Active; 'I' for Inactive)
REMARK    1  A    between atoms: C_2  and  N_4
REMARK    2  A    between atoms: C_2  and  C_47
REMARK    3  A    between atoms: C_2  and  C_51
REMARK    4  A    between atoms: C_8  and  N_13
REMARK    5  A    between atoms: N_13  and  C_15
REMARK    6  A    between atoms: C_20  and  C_25
REMARK    7  A    between atoms: N_28  and  CA_30
REMARK    8  A    between atoms: CA_30  and  CB_32
REMARK    9  A    between atoms: CA_30  and  C_42
REMARK   10  A    between atoms: CB_32  and  CG1_34
REMARK   11  A    between atoms: CB_32  and  CG2_38
REMARK   12  A    between atoms: C_42  and  O_45
REMARK                            x       y       z     vdW  Elec       q    Type
REMARK                         _______ _______ _______ _____ _____    ______ ____
ROOT
ATOM      1  N   UNL     1       7.239  -1.616   2.550  0.00  0.00    -0.197 NA
ATOM      2  C   UNL     1       7.677  -2.906   2.407  0.00  0.00    +0.156 A 
ATOM      3  C   UNL     1       7.857  -3.703   3.557  0.00  0.00    +0.148 A 
ATOM      4  N   UNL     1       8.229  -4.982   3.835  0.00  0.00    -0.231 NA
ATOM      5  C   UNL     1       8.140  -5.148   5.180  0.00  0.00    +0.201 A 
ATOM      6  N   UNL     1       7.702  -4.028   5.831  0.00  0.00    -0.312 N 
ATOM      7  C   UNL     1       7.519  -3.095   4.856  0.00  0.00    +0.167 A 
ATOM      8  N   UNL     1       7.034  -1.726   4.937  0.00  0.00    -0.195 NA
ATOM      9  C   ACE A   0       6.947  -1.015   3.774  0.00  0.00    +0.219 A 
ATOM     10  N   UNL     1       6.501   0.280   3.784  0.00  0.00    -0.308 N 
ATOM     11  H   UNL     1       6.258   0.764   4.660  0.00  0.00    +0.149 HD
ENDROOT
BRANCH   6  12
ATOM     12  C   UNL     1       7.598  -3.927   7.309  0.00  0.00    +0.084 C 
ATOM     13  C   UNL     1       6.187  -3.882   7.879  0.00  0.00    +0.030 C 
ATOM     14  C   UNL     1       8.299  -2.634   7.683  0.00  0.00    +0.030 C 
ENDBRANCH   6  12
BRANCH   2  15
ATOM     15  N   UNL     1       7.967  -3.461   1.180  0.00  0.00    -0.298 N 
ATOM     16  H   UNL     1       7.928  -4.487   1.095  0.00  0.00    +0.154 HD
BRANCH  15  17
ATOM     17  C   UNL     1       8.302  -2.745   0.068  0.00  0.00    +0.034 A 
ATOM     18  C   UNL     1       7.705  -3.060  -1.136  0.00  0.00    +0.044 A 
ATOM     19  C   UNL     1       7.964  -2.319  -2.277  0.00  0.00    +0.057 A 
ATOM     20 CL   UNL     1       7.285  -2.679  -3.591  0.00  0.00    -0.083 Cl
ATOM     21  C   UNL     1       8.925  -1.185  -2.168  0.00  0.00    +0.082 A 
ATOM     22  C   UNL     1       9.504  -0.882  -0.922  0.00  0.00    +0.018 A 
ATOM     23  C   UNL     1       9.187  -1.654   0.187  0.00  0.00    +0.024 A 
BRANCH  21  24
ATOM     24  C   UNL     1       9.249  -0.360  -3.368  0.00  0.00    +0.388 C 
ATOM     25  O   UNL     1       8.651   0.707  -3.570  0.00  0.00    -0.241 OA
ATOM     26  O   UNL     1      10.127  -0.741  -4.160  0.00  0.00    -0.241 OA
ENDBRANCH  21  24
ENDBRANCH  15  17
ENDBRANCH   2  15
BRANCH  10  27
ATOM     27  CA  UNL     1       6.386   0.935   2.481  0.00  0.00    +0.101 C 
BRANCH  27  28
ATOM     28  CB  UNL     1       7.072   2.313   2.378  0.00  0.00    +0.005 C 
ATOM     29  CG2 UNL     1       6.937   3.205   3.605  0.00  0.00    +0.009 C 
ATOM     30  CG1 UNL     1       8.485   2.258   1.743  0.00  0.00    +0.009 C 
ENDBRANCH  27  28
BRANCH  27  31
ATOM     31  C   UNL     1       5.028   0.783   1.773  0.00  0.00    +0.178 C 
BRANCH  31  32
ATOM     32  O   UNL     1       5.266   0.801   0.390  0.00  0.00    -0.393 OA
ATOM     33  H   UNL     1       4.375   0.927  -0.111  0.00  0.00    +0.209 HD
ENDBRANCH  31  32
ENDBRANCH  27  31
ENDBRANCH  10  27
TORSDOF 8
