REMARK  Name = LIGAND
REMARK  12 active torsions:
REMARK  status: ('A' for Active; 'I' for Inactive)
REMARK    1  A    between atoms: C_2  and  N_4
REMARK    2  A    between atoms: C_2  and  C_47
REMARK    3  A    between atoms: C_2  and  C_51
REMARK    4  A    between atoms: C_8  and  N_13
REMARK    5  A    between atoms: N_13  and  C_15
REMARK    6  A    between atoms: C_20  and  C_25
REMARK    7  A    between atoms: N_28  and  CA_30
REMARK    8  A    between atoms: CA_30  and  CB_32
REMARK    9  A    between atoms: CA_30  and  C_42
REMARK   10  A    between atoms: CB_32  and  CG1_34
REMARK   11  A    between atoms: CB_32  and  CG2_38
REMARK   12  A    between atoms: C_42  and  O_45
REMARK                            x       y       z     vdW  Elec       q    Type
REMARK                         _______ _______ _______ _____ _____    ______ ____
ROOT
ATOM      1  N   UNL     1       4.833  -3.422  -4.235  0.00  0.00    -0.197 NA
ATOM      2  C   UNL     1       6.017  -3.347  -3.550  0.00  0.00    +0.156 A 
ATOM      3  C   UNL     1       7.203  -3.057  -4.256  0.00  0.00    +0.148 A 
ATOM      4  N   UNL     1       8.519  -2.872  -3.962  0.00  0.00    -0.231 NA
ATOM      5  C   UNL     1       9.154  -2.551  -5.120  0.00  0.00    +0.201 A 
ATOM      6  N   UNL     1       8.311  -2.493  -6.195  0.00  0.00    -0.312 N 
ATOM      7  C   UNL     1       7.080  -2.810  -5.704  0.00  0.00    +0.167 A 
ATOM      8  N   UNL     1       5.788  -2.879  -6.367  0.00  0.00    -0.195 NA
ATOM      9  C   ACE A   0       4.705  -3.225  -5.609  0.00  0.00    +0.219 A 
ATOM     10  N   UNL     1       3.461  -3.310  -6.175  0.00  0.00    -0.308 N 
ATOM     11  H   UNL     1       3.310  -3.159  -7.182  0.00  0.00    +0.149 HD
ENDROOT
BRANCH   6  12
ATOM     12  C   UNL     1       8.771  -2.243  -7.584  0.00  0.00    +0.084 C 
ATOM     13  C   UNL     1      10.184  -1.692  -7.733  0.00  0.00    +0.030 C 
ATOM     14  C   UNL     1       7.806  -1.224  -8.161  0.00  0.00    +0.030 C 
ENDBRANCH   6  12
BRANCH   2  15
ATOM     15  N   UNL     1       6.106  -3.561  -2.192  0.00  0.00    -0.298 N 
ATOM     16  H   UNL     1       7.044  -3.690  -1.786  0.00  0.00    +0.154 HD
BRANCH  15  17
ATOM     17  C   UNL     1       5.036  -3.613  -1.347  0.00  0.00    +0.034 A 
ATOM     18  C   UNL     1       4.917  -4.683  -0.484  0.00  0.00    +0.044 A 
ATOM     19  C   UNL     1       3.884  -4.747   0.437  0.00  0.00    +0.057 A 
ATOM     20 CL   UNL     1       3.780  -5.931   1.387  0.00  0.00    -0.083 Cl
ATOM     21  C   UNL     1       2.893  -3.634   0.450  0.00  0.00    +0.082 A 
ATOM     22  C   UNL     1       3.053  -2.550  -0.435  0.00  0.00    +0.018 A 
ATOM     23  C   UNL     1       4.121  -2.541  -1.320  0.00  0.00    +0.024 A 
BRANCH  21  24
ATOM     24  C   UNL     1       1.754  -3.655   1.413  0.00  0.00    +0.388 C 
ATOM     25  O   UNL     1       1.839  -3.050   2.492  0.00  0.00    -0.241 OA
ATOM     26  O   UNL     1       0.716  -4.275   1.127  0.00  0.00    -0.241 OA
ENDBRANCH  21  24
ENDBRANCH  15  17
ENDBRANCH   2  15
BRANCH  10  27
ATOM     27  CA  UNL     1       2.357  -3.627  -5.268  0.00  0.00    +0.101 C 
BRANCH  27  28
ATOM     28  CB  UNL     1       2.059  -5.131  -5.098  0.00  0.00    +0.005 C 
ATOM     29  CG2 UNL     1       2.692  -6.046  -6.139  0.00  0.00    +0.009 C 
ATOM     30  CG1 UNL     1       2.153  -5.621  -3.631  0.00  0.00    +0.009 C 
ENDBRANCH  27  28
BRANCH  27  31
ATOM     31  C   UNL     1       1.143  -2.683  -5.338  0.00  0.00    +0.178 C 
BRANCH  31  32
ATOM     32  O   UNL     1       0.911  -2.390  -6.690  0.00  0.00    -0.393 OA
ATOM     33  H   UNL     1       0.038  -1.849  -6.781  0.00  0.00    +0.209 HD
ENDBRANCH  31  32
ENDBRANCH  27  31
ENDBRANCH  10  27
TORSDOF 8
