REMARK  Name = LIGAND
REMARK  7 active torsions:
REMARK  status: ('A' for Active; 'I' for Inactive)
REMARK    1  A    between atoms: C_5  and  C_11
REMARK    2  A    between atoms: N_13  and  C_14
REMARK    3  A    between atoms: C_16  and  N_24
REMARK    4  A    between atoms: C_20  and  C_21
REMARK    5  A    between atoms: N_43  and  C_49
REMARK    6  A    between atoms: C_49  and  C_51
REMARK    7  A    between atoms: C_49  and  C_52
REMARK                            x       y       z     vdW  Elec       q    Type
REMARK                         _______ _______ _______ _____ _____    ______ ____
ROOT
ATOM      1  C   UNL     1       3.381  -1.479  19.543  0.00  0.00    +0.075 A 
ATOM      2  C   UNL     1       2.895  -2.902  19.667  0.00  0.00    +0.276 A 
ATOM      3  O   UNL     1       3.097  -3.803  18.877  0.00  0.00    -0.266 OA
ATOM      4  N   UNL     1       2.175  -2.989  20.849  0.00  0.00    -0.246 N 
ATOM      5  N   UNL     1       2.178  -1.731  21.466  0.00  0.00    -0.281 N 
ATOM      6  C   UNL     1       1.576  -1.634  22.778  0.00  0.00    +0.171 C 
ATOM      7  C   UNL     1       2.908  -0.868  20.651  0.00  0.00    +0.097 A 
ENDROOT
BRANCH   4   8
ATOM      8  C   UNL     1       1.480  -4.159  21.375  0.00  0.00    +0.106 C 
ATOM      9  C   UNL     1       0.081  -4.277  20.760  0.00  0.00    +0.008 C 
ATOM     10  C   UNL     1      -0.590  -5.572  21.213  0.00  0.00    -0.081 C 
ATOM     11  N   UNL     1       0.242  -6.707  20.816  0.00  0.00    +0.379 N 
ATOM     12  H   UNL     1      -0.231  -7.586  20.997  0.00  0.00    -0.086 HD
ATOM     13  H   UNL     1       0.378  -6.703  19.811  0.00  0.00    -0.086 HD
ATOM     14  C   UNL     1       1.536  -6.678  21.496  0.00  0.00    -0.081 C 
ATOM     15  C   UNL     1       2.315  -5.420  21.132  0.00  0.00    +0.008 C 
ENDBRANCH   4   8
BRANCH   7  16
ATOM     16  C   UNL     1       3.075   0.531  21.058  0.00  0.00    +0.095 A 
ATOM     17  C   UNL     1       3.069   1.514  20.085  0.00  0.00    +0.050 A 
ATOM     18  C   UNL     1       3.229   2.809  20.514  0.00  0.00    +0.116 A 
ATOM     19  N   UNL     1       3.384   3.114  21.813  0.00  0.00    -0.223 NA
ATOM     20  C   UNL     1       3.378   2.105  22.689  0.00  0.00    +0.216 A 
ATOM     21  N   UNL     1       3.537   2.465  23.989  0.00  0.00    -0.307 N 
ATOM     22  H   UNL     1       3.738   3.455  24.191  0.00  0.00    +0.149 HD
ATOM     23  N   UNL     1       3.228   0.820  22.359  0.00  0.00    -0.213 NA
BRANCH  21  24
ATOM     24  C   UNL     1       3.445   1.565  25.099  0.00  0.00    +0.100 C 
ATOM     25  C   UNL     1       3.796   2.306  26.405  0.00  0.00    +0.033 C 
BRANCH  24  26
ATOM     26  C   UNL     1       2.105   0.886  25.292  0.00  0.00    -0.027 A 
ATOM     27  C   UNL     1       0.918   1.403  24.767  0.00  0.00    +0.005 A 
ATOM     28  C   UNL     1      -0.299   0.750  24.965  0.00  0.00    +0.000 A 
ATOM     29  C   UNL     1      -0.327  -0.429  25.695  0.00  0.00    +0.000 A 
ATOM     30  C   UNL     1       0.846  -0.952  26.222  0.00  0.00    +0.000 A 
ATOM     31  C   UNL     1       2.063  -0.309  26.029  0.00  0.00    +0.005 A 
ENDBRANCH  24  26
ENDBRANCH  21  24
ENDBRANCH   7  16
BRANCH   1  38
ATOM     32  C   UNL     1       5.449  -0.508  18.624  0.00  0.00    +0.011 A 
ATOM     33  C   UNL     1       6.285  -0.091  17.586  0.00  0.00    +0.039 A 
ATOM     34  C   UNL     1       5.810  -0.257  16.289  0.00  0.00    +0.123 A 
ATOM     35  F   UNL     1       6.599   0.137  15.295  0.00  0.00    -0.205 F 
ATOM     36  C   UNL     1       4.565  -0.810  16.006  0.00  0.00    +0.039 A 
ATOM     37  C   UNL     1       3.737  -1.224  17.060  0.00  0.00    +0.011 A 
ATOM     38  C   UNL     1       4.182  -1.073  18.382  0.00  0.00    -0.010 A 
ENDBRANCH   1  38
TORSDOF 5
