REMARK  Name = LIGAND
REMARK  7 active torsions:
REMARK  status: ('A' for Active; 'I' for Inactive)
REMARK    1  A    between atoms: C_5  and  C_11
REMARK    2  A    between atoms: N_13  and  C_14
REMARK    3  A    between atoms: C_16  and  N_24
REMARK    4  A    between atoms: C_20  and  C_21
REMARK    5  A    between atoms: N_43  and  C_49
REMARK    6  A    between atoms: C_49  and  C_51
REMARK    7  A    between atoms: C_49  and  C_52
REMARK                            x       y       z     vdW  Elec       q    Type
REMARK                         _______ _______ _______ _____ _____    ______ ____
ROOT
ATOM      1  C   UNL     1      -7.107   4.532  -5.212  0.00  0.00    +0.075 A 
ATOM      2  C   UNL     1      -6.372   4.248  -3.925  0.00  0.00    +0.276 A 
ATOM      3  O   UNL     1      -6.660   4.671  -2.823  0.00  0.00    -0.266 OA
ATOM      4  N   UNL     1      -5.307   3.416  -4.235  0.00  0.00    -0.246 N 
ATOM      5  N   UNL     1      -5.326   3.163  -5.613  0.00  0.00    -0.281 N 
ATOM      6  C   UNL     1      -4.360   2.216  -6.127  0.00  0.00    +0.171 C 
ATOM      7  C   UNL     1      -6.414   3.848  -6.149  0.00  0.00    +0.097 A 
ENDROOT
BRANCH   4   8
ATOM      8  C   UNL     1      -4.291   2.904  -3.321  0.00  0.00    +0.106 C 
ATOM      9  C   UNL     1      -3.641   4.052  -2.540  0.00  0.00    +0.008 C 
ATOM     10  C   UNL     1      -2.675   3.501  -1.494  0.00  0.00    -0.081 C 
ATOM     11  N   UNL     1      -3.404   2.614  -0.589  0.00  0.00    +0.379 N 
ATOM     12  H   UNL     1      -2.818   2.324   0.187  0.00  0.00    -0.086 HD
ATOM     13  H   UNL     1      -4.165   3.117  -0.147  0.00  0.00    -0.086 HD
ATOM     14  C   UNL     1      -3.921   1.444  -1.298  0.00  0.00    -0.081 C 
ATOM     15  C   UNL     1      -4.904   1.858  -2.386  0.00  0.00    +0.008 C 
ENDBRANCH   4   8
BRANCH   7  16
ATOM     16  C   UNL     1      -6.677   3.761  -7.589  0.00  0.00    +0.095 A 
ATOM     17  C   UNL     1      -5.807   4.383  -8.465  0.00  0.00    +0.050 A 
ATOM     18  C   UNL     1      -6.095   4.274  -9.804  0.00  0.00    +0.116 A 
ATOM     19  N   UNL     1      -7.167   3.597 -10.248  0.00  0.00    -0.223 NA
ATOM     20  C   UNL     1      -7.957   3.024  -9.335  0.00  0.00    +0.216 A 
ATOM     21  N   UNL     1      -9.026   2.351  -9.834  0.00  0.00    -0.307 N 
ATOM     22  H   UNL     1      -9.196   2.407 -10.849  0.00  0.00    +0.149 HD
ATOM     23  N   UNL     1      -7.751   3.080  -8.017  0.00  0.00    -0.213 NA
BRANCH  21  24
ATOM     24  C   UNL     1      -9.932   1.568  -9.050  0.00  0.00    +0.100 C 
ATOM     25  C   UNL     1     -11.387   1.937  -9.406  0.00  0.00    +0.033 C 
BRANCH  24  26
ATOM     26  C   UNL     1      -9.787   0.066  -9.172  0.00  0.00    -0.027 A 
ATOM     27  C   UNL     1      -8.544  -0.563  -9.280  0.00  0.00    +0.005 A 
ATOM     28  C   UNL     1      -8.449  -1.951  -9.391  0.00  0.00    +0.000 A 
ATOM     29  C   UNL     1      -9.607  -2.714  -9.395  0.00  0.00    +0.000 A 
ATOM     30  C   UNL     1     -10.848  -2.100  -9.289  0.00  0.00    +0.000 A 
ATOM     31  C   UNL     1     -10.953  -0.719  -9.177  0.00  0.00    +0.005 A 
ENDBRANCH  24  26
ENDBRANCH  21  24
ENDBRANCH   7  16
BRANCH   1  38
ATOM     32  C   UNL     1      -9.409   4.981  -5.962  0.00  0.00    +0.011 A 
ATOM     33  C   UNL     1     -10.585   5.732  -6.020  0.00  0.00    +0.039 A 
ATOM     34  C   UNL     1     -10.611   6.918  -5.294  0.00  0.00    +0.123 A 
ATOM     35  F   UNL     1     -11.726   7.639  -5.343  0.00  0.00    -0.205 F 
ATOM     36  C   UNL     1      -9.533   7.363  -4.535  0.00  0.00    +0.039 A 
ATOM     37  C   UNL     1      -8.359   6.597  -4.487  0.00  0.00    +0.011 A 
ATOM     38  C   UNL     1      -8.295   5.394  -5.206  0.00  0.00    -0.010 A 
ENDBRANCH   1  38
TORSDOF 5
