REMARK  Name = LIGAND
REMARK  7 active torsions:
REMARK  status: ('A' for Active; 'I' for Inactive)
REMARK    1  A    between atoms: C_5  and  C_11
REMARK    2  A    between atoms: N_13  and  C_14
REMARK    3  A    between atoms: C_16  and  N_24
REMARK    4  A    between atoms: C_20  and  C_21
REMARK    5  A    between atoms: N_43  and  C_49
REMARK    6  A    between atoms: C_49  and  C_51
REMARK    7  A    between atoms: C_49  and  C_52
REMARK                            x       y       z     vdW  Elec       q    Type
REMARK                         _______ _______ _______ _____ _____    ______ ____
ROOT
ATOM      1  C   UNL     1      -3.523  -1.003  -4.777  0.00  0.00    +0.075 A 
ATOM      2  C   UNL     1      -2.665  -2.226  -4.982  0.00  0.00    +0.276 A 
ATOM      3  O   UNL     1      -1.522  -2.243  -5.393  0.00  0.00    -0.266 OA
ATOM      4  N   UNL     1      -3.424  -3.327  -4.615  0.00  0.00    -0.246 N 
ATOM      5  N   UNL     1      -4.685  -2.880  -4.198  0.00  0.00    -0.281 N 
ATOM      6  C   UNL     1      -5.594  -3.868  -3.660  0.00  0.00    +0.171 C 
ATOM      7  C   UNL     1      -4.694  -1.492  -4.312  0.00  0.00    +0.097 A 
ENDROOT
BRANCH   4   8
ATOM      8  C   UNL     1      -3.031  -4.731  -4.678  0.00  0.00    +0.106 C 
ATOM      9  C   UNL     1      -3.000  -5.217  -6.131  0.00  0.00    +0.008 C 
ATOM     10  C   UNL     1      -2.462  -6.645  -6.201  0.00  0.00    -0.081 C 
ATOM     11  N   UNL     1      -1.121  -6.681  -5.620  0.00  0.00    +0.379 N 
ATOM     12  H   UNL     1      -0.689  -7.589  -5.757  0.00  0.00    -0.086 HD
ATOM     13  H   UNL     1      -0.510  -6.041  -6.115  0.00  0.00    -0.086 HD
ATOM     14  C   UNL     1      -1.152  -6.344  -4.197  0.00  0.00    -0.081 C 
ATOM     15  C   UNL     1      -1.680  -4.931  -3.984  0.00  0.00    +0.008 C 
ENDBRANCH   4   8
BRANCH   7  16
ATOM     16  C   UNL     1      -5.903  -0.751  -3.939  0.00  0.00    +0.095 A 
ATOM     17  C   UNL     1      -6.045  -0.320  -2.633  0.00  0.00    +0.050 A 
ATOM     18  C   UNL     1      -7.195   0.369  -2.331  0.00  0.00    +0.116 A 
ATOM     19  N   UNL     1      -8.139   0.617  -3.254  0.00  0.00    -0.223 NA
ATOM     20  C   UNL     1      -7.924   0.166  -4.493  0.00  0.00    +0.216 A 
ATOM     21  N   UNL     1      -8.906   0.443  -5.389  0.00  0.00    -0.307 N 
ATOM     22  H   UNL     1      -9.766   0.888  -5.036  0.00  0.00    +0.149 HD
ATOM     23  N   UNL     1      -6.837  -0.510  -4.872  0.00  0.00    -0.213 NA
BRANCH  21  24
ATOM     24  C   UNL     1      -8.832   0.160  -6.791  0.00  0.00    +0.100 C 
ATOM     25  C   UNL     1     -10.253   0.063  -7.382  0.00  0.00    +0.033 C 
BRANCH  24  26
ATOM     26  C   UNL     1      -8.044   1.148  -7.626  0.00  0.00    -0.027 A 
ATOM     27  C   UNL     1      -8.392   2.498  -7.719  0.00  0.00    +0.005 A 
ATOM     28  C   UNL     1      -7.642   3.380  -8.498  0.00  0.00    +0.000 A 
ATOM     29  C   UNL     1      -6.537   2.905  -9.190  0.00  0.00    +0.000 A 
ATOM     30  C   UNL     1      -6.183   1.566  -9.105  0.00  0.00    +0.000 A 
ATOM     31  C   UNL     1      -6.923   0.680  -8.330  0.00  0.00    +0.005 A 
ENDBRANCH  24  26
ENDBRANCH  21  24
ENDBRANCH   7  16
BRANCH   1  38
ATOM     32  C   UNL     1      -3.431   0.959  -6.262  0.00  0.00    +0.011 A 
ATOM     33  C   UNL     1      -2.982   2.227  -6.639  0.00  0.00    +0.039 A 
ATOM     34  C   UNL     1      -2.071   2.850  -5.792  0.00  0.00    +0.123 A 
ATOM     35  F   UNL     1      -1.639   4.057  -6.142  0.00  0.00    -0.205 F 
ATOM     36  C   UNL     1      -1.610   2.264  -4.617  0.00  0.00    +0.039 A 
ATOM     37  C   UNL     1      -2.071   0.990  -4.253  0.00  0.00    +0.011 A 
ATOM     38  C   UNL     1      -2.990   0.330  -5.082  0.00  0.00    -0.010 A 
ENDBRANCH   1  38
TORSDOF 5
