REMARK  Name = LIGAND
REMARK  7 active torsions:
REMARK  status: ('A' for Active; 'I' for Inactive)
REMARK    1  A    between atoms: C_5  and  C_11
REMARK    2  A    between atoms: N_13  and  C_14
REMARK    3  A    between atoms: C_16  and  N_24
REMARK    4  A    between atoms: C_20  and  C_21
REMARK    5  A    between atoms: N_43  and  C_49
REMARK    6  A    between atoms: C_49  and  C_51
REMARK    7  A    between atoms: C_49  and  C_52
REMARK                            x       y       z     vdW  Elec       q    Type
REMARK                         _______ _______ _______ _____ _____    ______ ____
ROOT
ATOM      1  C   UNL     1      -5.613  -5.816  -0.275  0.00  0.00    +0.075 A 
ATOM      2  C   UNL     1      -6.203  -6.450  -1.510  0.00  0.00    +0.276 A 
ATOM      3  O   UNL     1      -5.820  -7.470  -2.048  0.00  0.00    -0.266 OA
ATOM      4  N   UNL     1      -7.263  -5.653  -1.915  0.00  0.00    -0.246 N 
ATOM      5  N   UNL     1      -7.374  -4.575  -1.027  0.00  0.00    -0.281 N 
ATOM      6  C   UNL     1      -8.498  -3.681  -1.205  0.00  0.00    +0.171 C 
ATOM      7  C   UNL     1      -6.371  -4.717  -0.070  0.00  0.00    +0.097 A 
ENDROOT
BRANCH   4   8
ATOM      8  C   UNL     1      -8.114  -5.843  -3.085  0.00  0.00    +0.106 C 
ATOM      9  C   UNL     1      -7.267  -5.925  -4.360  0.00  0.00    +0.008 C 
ATOM     10  C   UNL     1      -8.150  -6.255  -5.562  0.00  0.00    -0.081 C 
ATOM     11  N   UNL     1      -8.836  -7.523  -5.319  0.00  0.00    +0.379 N 
ATOM     12  H   UNL     1      -9.338  -7.829  -6.146  0.00  0.00    -0.086 HD
ATOM     13  H   UNL     1      -8.157  -8.259  -5.156  0.00  0.00    -0.086 HD
ATOM     14  C   UNL     1      -9.747  -7.422  -4.180  0.00  0.00    -0.081 C 
ATOM     15  C   UNL     1      -8.988  -7.087  -2.902  0.00  0.00    +0.008 C 
ENDBRANCH   4   8
BRANCH   7  16
ATOM     16  C   UNL     1      -6.252  -3.717   0.996  0.00  0.00    +0.095 A 
ATOM     17  C   UNL     1      -7.352  -3.455   1.792  0.00  0.00    +0.050 A 
ATOM     18  C   UNL     1      -7.192  -2.511   2.776  0.00  0.00    +0.116 A 
ATOM     19  N   UNL     1      -6.028  -1.868   2.964  0.00  0.00    -0.223 NA
ATOM     20  C   UNL     1      -5.013  -2.180   2.151  0.00  0.00    +0.216 A 
ATOM     21  N   UNL     1      -3.858  -1.504   2.381  0.00  0.00    -0.307 N 
ATOM     22  H   UNL     1      -3.874  -0.754   3.087  0.00  0.00    +0.149 HD
ATOM     23  N   UNL     1      -5.082  -3.084   1.171  0.00  0.00    -0.213 NA
BRANCH  21  24
ATOM     24  C   UNL     1      -2.618  -1.762   1.712  0.00  0.00    +0.100 C 
ATOM     25  C   UNL     1      -1.987  -0.433   1.249  0.00  0.00    +0.033 C 
BRANCH  24  26
ATOM     26  C   UNL     1      -1.579  -2.520   2.511  0.00  0.00    -0.027 A 
ATOM     27  C   UNL     1      -0.477  -1.893   3.097  0.00  0.00    +0.005 A 
ATOM     28  C   UNL     1       0.462  -2.624   3.826  0.00  0.00    +0.000 A 
ATOM     29  C   UNL     1       0.295  -3.993   3.969  0.00  0.00    +0.000 A 
ATOM     30  C   UNL     1      -0.796  -4.628   3.390  0.00  0.00    +0.000 A 
ATOM     31  C   UNL     1      -1.737  -3.908   2.663  0.00  0.00    +0.005 A 
ENDBRANCH  24  26
ENDBRANCH  21  24
ENDBRANCH   7  16
BRANCH   1  38
ATOM     32  C   UNL     1      -4.610  -6.804   1.746  0.00  0.00    +0.011 A 
ATOM     33  C   UNL     1      -3.575  -7.401   2.468  0.00  0.00    +0.039 A 
ATOM     34  C   UNL     1      -2.379  -7.620   1.792  0.00  0.00    +0.123 A 
ATOM     35  F   UNL     1      -1.389  -8.187   2.472  0.00  0.00    -0.205 F 
ATOM     36  C   UNL     1      -2.192  -7.272   0.458  0.00  0.00    +0.039 A 
ATOM     37  C   UNL     1      -3.242  -6.673  -0.254  0.00  0.00    +0.011 A 
ATOM     38  C   UNL     1      -4.463  -6.437   0.394  0.00  0.00    -0.010 A 
ENDBRANCH   1  38
TORSDOF 5
