REMARK  Name = LIGAND
REMARK  2 active torsions:
REMARK  status: ('A' for Active; 'I' for Inactive)
REMARK    1  A    between atoms: C_3  and  S_5
REMARK    2  A    between atoms: S_5  and  N_10
REMARK                            x       y       z     vdW  Elec       q    Type
REMARK                         _______ _______ _______ _____ _____    ______ ____
ROOT
ATOM      1  C   UNL     1       7.325  -0.049  -6.807  0.00  0.00    +0.005 A 
ATOM      2  C   UNL     1       8.578  -0.282  -7.362  0.00  0.00    -0.048 A 
ATOM      3  C   UNL     1       9.509   0.867  -7.594  0.00  0.00    +0.016 C 
ATOM      4  C   UNL     1      10.939   0.375  -7.550  0.00  0.00    -0.077 C 
ATOM      5  N   UNL     1      11.076  -0.604  -8.662  0.00  0.00    +0.382 N 
ATOM      6  H   UNL     1      12.042  -0.880  -8.791  0.00  0.00    -0.085 HD
ATOM      7  H   UNL     1      10.835  -0.124  -9.520  0.00  0.00    -0.085 HD
ATOM      8  C   UNL     1      10.233  -1.811  -8.501  0.00  0.00    -0.046 C 
ATOM      9  C   UNL     1       8.854  -1.514  -7.966  0.00  0.00    -0.059 A 
ATOM     10  C   UNL     1       7.882  -2.495  -8.006  0.00  0.00    +0.030 A 
ATOM     11  C   UNL     1       6.629  -2.263  -7.452  0.00  0.00    +0.105 A 
ATOM     12  C   UNL     1       6.346  -1.033  -6.848  0.00  0.00    +0.029 A 
ENDROOT
BRANCH  11  13
ATOM     13  S   UNL     1       5.393  -3.520  -7.520  0.00  0.00    +0.056 S 
ATOM     14  O   UNL     1       5.852  -4.713  -8.183  0.00  0.00    -0.153 OA
ATOM     15  O   UNL     1       4.936  -3.868  -6.192  0.00  0.00    -0.153 OA
BRANCH  13  16
ATOM     16  N   UNL     1       4.184  -2.927  -8.338  0.00  0.00    -0.204 NA
ATOM     17  H   UNL     1       4.117  -1.911  -8.495  0.00  0.00    +0.144 HD
ATOM     18  H   UNL     1       3.460  -3.555  -8.716  0.00  0.00    +0.144 HD
ENDBRANCH  13  16
ENDBRANCH  11  13
TORSDOF 2
