REMARK  Name = LIGAND
REMARK  2 active torsions:
REMARK  status: ('A' for Active; 'I' for Inactive)
REMARK    1  A    between atoms: C_3  and  S_5
REMARK    2  A    between atoms: S_5  and  N_10
REMARK                            x       y       z     vdW  Elec       q    Type
REMARK                         _______ _______ _______ _____ _____    ______ ____
ROOT
ATOM      1  C   UNL     1      -5.397   4.509  -6.861  0.00  0.00    +0.005 A 
ATOM      2  C   UNL     1      -5.031   3.185  -6.645  0.00  0.00    -0.048 A 
ATOM      3  C   UNL     1      -5.138   2.197  -7.765  0.00  0.00    +0.016 C 
ATOM      4  C   UNL     1      -4.130   1.087  -7.557  0.00  0.00    -0.077 C 
ATOM      5  N   UNL     1      -4.499   0.425  -6.277  0.00  0.00    +0.382 N 
ATOM      6  H   UNL     1      -3.958  -0.418  -6.130  0.00  0.00    -0.085 HD
ATOM      7  H   UNL     1      -5.453   0.100  -6.367  0.00  0.00    -0.085 HD
ATOM      8  C   UNL     1      -4.374   1.306  -5.092  0.00  0.00    -0.046 C 
ATOM      9  C   UNL     1      -4.849   2.716  -5.339  0.00  0.00    -0.059 A 
ATOM     10  C   UNL     1      -5.031   3.571  -4.269  0.00  0.00    +0.030 A 
ATOM     11  C   UNL     1      -5.397   4.894  -4.483  0.00  0.00    +0.105 A 
ATOM     12  C   UNL     1      -5.582   5.368  -5.787  0.00  0.00    +0.029 A 
ENDROOT
BRANCH  11  13
ATOM     13  S   UNL     1      -5.637   5.972  -3.107  0.00  0.00    +0.056 S 
ATOM     14  O   UNL     1      -6.289   5.321  -2.001  0.00  0.00    -0.153 OA
ATOM     15  O   UNL     1      -4.377   6.520  -2.654  0.00  0.00    -0.153 OA
BRANCH  13  16
ATOM     16  N   UNL     1      -6.558   7.150  -3.607  0.00  0.00    -0.204 NA
ATOM     17  H   UNL     1      -7.429   7.372  -3.103  0.00  0.00    +0.144 HD
ATOM     18  H   UNL     1      -6.289   7.698  -4.437  0.00  0.00    +0.144 HD
ENDBRANCH  13  16
ENDBRANCH  11  13
TORSDOF 2
