REMARK  Name = LIGAND
REMARK  9 active torsions:
REMARK  status: ('A' for Active; 'I' for Inactive)
REMARK    1  A    between atoms: N_6  and  C_10
REMARK    2  A    between atoms: C_13  and  C_14
REMARK    3  A    between atoms: C_20  and  C_21
REMARK    4  A    between atoms: C_25  and  O_26
REMARK    5  A    between atoms: O_26  and  C_27
REMARK    6  A    between atoms: C_32  and  C_33
REMARK    7  A    between atoms: C_33  and  C_35
REMARK    8  A    between atoms: C_33  and  C_39
REMARK    9  A    between atoms: C_43  and  O_46
REMARK                            x       y       z     vdW  Elec       q    Type
REMARK                         _______ _______ _______ _____ _____    ______ ____
ROOT
ATOM      1  C   UNL     1      19.299   5.407   4.443  0.00  0.00    +0.071 A 
ATOM      2  C   UNL     1      18.553   5.719   3.321  0.00  0.00    +0.035 A 
ATOM      3  C   UNL     1      18.956   6.702   2.397  0.00  0.00    -0.006 A 
ATOM      4  C   UNL     1      20.103   7.482   2.696  0.00  0.00    +0.134 A 
ATOM      5  C   UNL     1      20.859   7.233   3.877  0.00  0.00    -0.006 A 
ATOM      6  C   UNL     1      22.040   8.059   4.115  0.00  0.00    +0.047 C 
ATOM      7  C   UNL     1      18.088   7.020   1.162  0.00  0.00    +0.047 C 
ATOM      8  C   UNL     1      20.493   6.176   4.753  0.00  0.00    +0.035 A 
ENDROOT
BRANCH   1  11
ATOM      9  O   UNL     1      17.223   5.255   6.139  0.00  0.00    -0.242 OA
ATOM     10  C   UNL     1      18.023   4.377   6.268  0.00  0.00    +0.372 A 
ATOM     11  N   UNL     1      19.023   4.410   5.400  0.00  0.00    -0.180 N 
ATOM     12  N   UNL     1      20.032   3.413   5.406  0.00  0.00    -0.165 NA
ATOM     13  C   UNL     1      20.019   2.446   6.252  0.00  0.00    +0.205 A 
ATOM     14  C   UNL     1      18.947   2.397   7.246  0.00  0.00    +0.294 A 
ATOM     15  O   UNL     1      18.955   1.489   8.047  0.00  0.00    -0.264 OA
ATOM     16  N   UNL     1      17.977   3.356   7.189  0.00  0.00    -0.151 NA
ENDBRANCH   1  11
BRANCH   4  17
ATOM     17  O   UNL     1      20.380   8.504   1.813  0.00  0.00    -0.455 OA
BRANCH  17  18
ATOM     18  C   UNL     1      21.419   8.339   0.910  0.00  0.00    +0.129 A 
ATOM     19  C   UNL     1      22.220   9.512   0.664  0.00  0.00    +0.053 A 
ATOM     20  C   UNL     1      23.295   9.425  -0.257  0.00  0.00    +0.000 A 
ATOM     21  C   UNL     1      23.583   8.175  -0.855  0.00  0.00    +0.120 A 
ATOM     22  C   UNL     1      22.756   7.045  -0.637  0.00  0.00    +0.049 A 
ATOM     23  C   UNL     1      21.680   7.075   0.261  0.00  0.00    +0.050 A 
BRANCH  20  24
ATOM     24  C   UNL     1      24.211  10.646  -0.504  0.00  0.00    +0.017 C 
ATOM     25  C   UNL     1      25.097  10.780   0.760  0.00  0.00    +0.012 C 
ATOM     26  C   UNL     1      23.293  11.889  -0.716  0.00  0.00    +0.012 C 
ENDBRANCH  20  24
BRANCH  21  27
ATOM     27  O   UNL     1      24.637   8.036  -1.731  0.00  0.00    -0.506 OA
ATOM     28  H   UNL     1      24.802   8.930  -2.215  0.00  0.00    +0.292 HD
ENDBRANCH  21  27
ENDBRANCH  17  18
ENDBRANCH   4  17
TORSDOF 5
