REMARK  Name = LIGAND
REMARK  9 active torsions:
REMARK  status: ('A' for Active; 'I' for Inactive)
REMARK    1  A    between atoms: N_6  and  C_10
REMARK    2  A    between atoms: C_13  and  C_14
REMARK    3  A    between atoms: C_20  and  C_21
REMARK    4  A    between atoms: C_25  and  O_26
REMARK    5  A    between atoms: O_26  and  C_27
REMARK    6  A    between atoms: C_32  and  C_33
REMARK    7  A    between atoms: C_33  and  C_35
REMARK    8  A    between atoms: C_33  and  C_39
REMARK    9  A    between atoms: C_43  and  O_46
REMARK                            x       y       z     vdW  Elec       q    Type
REMARK                         _______ _______ _______ _____ _____    ______ ____
ROOT
ATOM      1  C   UNL     1       6.409   4.226   5.938  0.00  0.00    +0.071 A 
ATOM      2  C   UNL     1       6.531   4.189   7.315  0.00  0.00    +0.035 A 
ATOM      3  C   UNL     1       6.399   2.997   8.052  0.00  0.00    -0.006 A 
ATOM      4  C   UNL     1       6.003   1.819   7.368  0.00  0.00    +0.134 A 
ATOM      5  C   UNL     1       5.803   1.834   5.958  0.00  0.00    -0.006 A 
ATOM      6  C   UNL     1       5.417   0.582   5.313  0.00  0.00    +0.047 C 
ATOM      7  C   UNL     1       6.538   3.006   9.589  0.00  0.00    +0.047 C 
ATOM      8  C   UNL     1       6.032   3.023   5.214  0.00  0.00    +0.035 A 
ENDROOT
BRANCH   1  11
ATOM      9  O   UNL     1       8.610   5.719   5.569  0.00  0.00    -0.242 OA
ATOM     10  C   UNL     1       7.653   6.104   4.966  0.00  0.00    +0.372 A 
ATOM     11  N   UNL     1       6.576   5.344   5.096  0.00  0.00    -0.180 N 
ATOM     12  N   UNL     1       5.373   5.654   4.412  0.00  0.00    -0.165 NA
ATOM     13  C   UNL     1       5.278   6.682   3.647  0.00  0.00    +0.205 A 
ATOM     14  C   UNL     1       6.438   7.562   3.506  0.00  0.00    +0.294 A 
ATOM     15  O   UNL     1       6.331   8.535   2.794  0.00  0.00    -0.264 OA
ATOM     16  N   UNL     1       7.588   7.214   4.155  0.00  0.00    -0.151 NA
ENDBRANCH   1  11
BRANCH   4  17
ATOM     17  O   UNL     1       5.777   0.713   8.160  0.00  0.00    -0.455 OA
BRANCH  17  18
ATOM     18  C   UNL     1       4.540   0.574   8.770  0.00  0.00    +0.129 A 
ATOM     19  C   UNL     1       3.542   1.536   8.375  0.00  0.00    +0.053 A 
ATOM     20  C   UNL     1       2.254   1.466   8.965  0.00  0.00    +0.000 A 
ATOM     21  C   UNL     1       1.974   0.416   9.872  0.00  0.00    +0.120 A 
ATOM     22  C   UNL     1       2.982  -0.492  10.283  0.00  0.00    +0.049 A 
ATOM     23  C   UNL     1       4.272  -0.467   9.735  0.00  0.00    +0.050 A 
BRANCH  20  24
ATOM     24  C   UNL     1       1.141   2.445   8.526  0.00  0.00    +0.017 C 
ATOM     25  C   UNL     1       0.169   1.621   7.644  0.00  0.00    +0.012 C 
ATOM     26  C   UNL     1       1.818   3.605   7.733  0.00  0.00    +0.012 C 
ENDBRANCH  20  24
BRANCH  21  27
ATOM     27  O   UNL     1       0.728   0.289  10.445  0.00  0.00    -0.506 OA
ATOM     28  H   UNL     1       0.768   0.595  11.428  0.00  0.00    +0.292 HD
ENDBRANCH  21  27
ENDBRANCH  17  18
ENDBRANCH   4  17
TORSDOF 5
