REMARK  Name = LIGAND
REMARK  9 active torsions:
REMARK  status: ('A' for Active; 'I' for Inactive)
REMARK    1  A    between atoms: N_6  and  C_10
REMARK    2  A    between atoms: C_13  and  C_14
REMARK    3  A    between atoms: C_20  and  C_21
REMARK    4  A    between atoms: C_25  and  O_26
REMARK    5  A    between atoms: O_26  and  C_27
REMARK    6  A    between atoms: C_32  and  C_33
REMARK    7  A    between atoms: C_33  and  C_35
REMARK    8  A    between atoms: C_33  and  C_39
REMARK    9  A    between atoms: C_43  and  O_46
REMARK                            x       y       z     vdW  Elec       q    Type
REMARK                         _______ _______ _______ _____ _____    ______ ____
ROOT
ATOM      1  C   UNL     1       6.722   2.206  -5.134  0.00  0.00    +0.071 A 
ATOM      2  C   UNL     1       7.814   1.360  -5.214  0.00  0.00    +0.035 A 
ATOM      3  C   UNL     1       8.962   1.680  -5.962  0.00  0.00    -0.006 A 
ATOM      4  C   UNL     1       8.945   2.854  -6.759  0.00  0.00    +0.134 A 
ATOM      5  C   UNL     1       7.811   3.715  -6.754  0.00  0.00    -0.006 A 
ATOM      6  C   UNL     1       7.866   4.917  -7.582  0.00  0.00    +0.047 C 
ATOM      7  C   UNL     1      10.154   0.703  -6.026  0.00  0.00    +0.047 C 
ATOM      8  C   UNL     1       6.696   3.427  -5.922  0.00  0.00    +0.035 A 
ENDROOT
BRANCH   1  11
ATOM      9  O   UNL     1       4.651   0.576  -5.650  0.00  0.00    -0.242 OA
ATOM     10  C   UNL     1       4.511   1.247  -4.672  0.00  0.00    +0.372 A 
ATOM     11  N   UNL     1       5.549   2.015  -4.376  0.00  0.00    -0.180 N 
ATOM     12  N   UNL     1       5.545   2.842  -3.224  0.00  0.00    -0.165 NA
ATOM     13  C   UNL     1       4.537   2.883  -2.428  0.00  0.00    +0.205 A 
ATOM     14  C   UNL     1       3.360   2.073  -2.742  0.00  0.00    +0.294 A 
ATOM     15  O   UNL     1       2.412   2.133  -1.992  0.00  0.00    -0.264 OA
ATOM     16  N   UNL     1       3.414   1.266  -3.842  0.00  0.00    -0.151 NA
ENDBRANCH   1  11
BRANCH   4  17
ATOM     17  O   UNL     1      10.051   3.052  -7.558  0.00  0.00    -0.455 OA
BRANCH  17  18
ATOM     18  C   UNL     1      10.066   2.490  -8.825  0.00  0.00    +0.129 A 
ATOM     19  C   UNL     1      11.370   2.338  -9.422  0.00  0.00    +0.053 A 
ATOM     20  C   UNL     1      11.466   1.780 -10.722  0.00  0.00    +0.000 A 
ATOM     21  C   UNL     1      10.286   1.335 -11.363  0.00  0.00    +0.120 A 
ATOM     22  C   UNL     1       9.009   1.535 -10.781  0.00  0.00    +0.049 A 
ATOM     23  C   UNL     1       8.856   2.082  -9.500  0.00  0.00    +0.050 A 
BRANCH  20  24
ATOM     24  C   UNL     1      12.850   1.549 -11.371  0.00  0.00    +0.017 C 
ATOM     25  C   UNL     1      13.855   1.407 -10.200  0.00  0.00    +0.012 C 
ATOM     26  C   UNL     1      13.162   2.786 -12.269  0.00  0.00    +0.012 C 
ENDBRANCH  20  24
BRANCH  21  27
ATOM     27  O   UNL     1      10.334   0.757 -12.613  0.00  0.00    -0.506 OA
ATOM     28  H   UNL     1      10.567   1.475 -13.314  0.00  0.00    +0.292 HD
ENDBRANCH  21  27
ENDBRANCH  17  18
ENDBRANCH   4  17
TORSDOF 5
