REMARK  Name = 2wbg_ligand
REMARK  12 active torsions:
REMARK  status: ('A' for Active; 'I' for Inactive)
REMARK    1  A    between atoms: O4_1  and  C4_2
REMARK    2  A    between atoms: C3_6  and  O3_7
REMARK    3  A    between atoms: C2_8  and  O2_9
REMARK    4  A    between atoms: C1_10  and  O1_11
REMARK    5  A    between atoms: N2_14  and  C8_15
REMARK    6  A    between atoms: C8_15  and  C9_16
REMARK    7  A    between atoms: C9_16  and  C10_17
REMARK    8  A    between atoms: C10_17  and  C11_18
REMARK    9  A    between atoms: C11_18  and  C12_19
REMARK   10  A    between atoms: C12_19  and  C13_20
REMARK   11  A    between atoms: C13_20  and  C14_21
REMARK   12  A    between atoms: C14_21  and  C15_22
REMARK                            x       y       z     vdW  Elec       q    Type
REMARK                         _______ _______ _______ _____ _____    ______ ____
ROOT
ATOM      1  C   UNL     1       1.672   6.633  13.469  0.00  0.00    +0.175 C 
ATOM      2  C   UNL     1       1.834   5.345  14.285  0.00  0.00    +0.178 C 
ATOM      3  C   UNL     1       2.875   4.413  13.644  0.00  0.00    +0.199 C 
ATOM      4  C   UNL     1       2.712   4.293  12.109  0.00  0.00    +0.268 C 
ATOM      5  N   UNL     1       1.943   5.359  11.423  0.00  0.00    -0.213 N 
ATOM      6  C   UNL     1       1.911   5.743  10.097  0.00  0.00    +0.244 C 
ATOM      7  N   UNL     1       2.547   5.131   9.094  0.00  0.00    -0.361 NA
ATOM      8  O   UNL     1       1.080   6.822   9.878  0.00  0.00    -0.255 OA
ATOM      9  C   UNL     1       0.660   7.335  11.168  0.00  0.00    +0.244 C 
ATOM     10  C   UNL     1       1.001   6.219  12.154  0.00  0.00    +0.174 C 
ENDROOT
BRANCH   1  11
ATOM     11  O   UNL     1       0.843   7.545  14.169  0.00  0.00    -0.387 OA
ATOM     12  H   UNL     1       1.270   7.799  14.990  0.00  0.00    +0.210 HD
ENDBRANCH   1  11
BRANCH   4  13
ATOM     13  O   UNL     1       4.008   4.337  11.481  0.00  0.00    -0.367 OA
ATOM     14  H   UNL     1       3.913   4.167  10.541  0.00  0.00    +0.212 HD
ENDBRANCH   4  13
BRANCH   3  15
ATOM     15  O   UNL     1       2.834   3.094  14.200  0.00  0.00    -0.384 OA
ATOM     16  H   UNL     1       3.498   2.547  13.773  0.00  0.00    +0.210 HD
ENDBRANCH   3  15
BRANCH   2  17
ATOM     17  O   UNL     1       2.312   5.654  15.596  0.00  0.00    -0.386 OA
ATOM     18  H   UNL     1       1.684   6.231  16.037  0.00  0.00    +0.210 HD
ENDBRANCH   2  17
BRANCH   7  19
ATOM     19  C   UNL     1       2.386   5.347   7.650  0.00  0.00    +0.026 C 
BRANCH  19  20
ATOM     20  C   UNL     1       3.596   6.067   7.066  0.00  0.00    +0.002 C 
BRANCH  20  21
ATOM     21  C   UNL     1       3.534   6.134   5.533  0.00  0.00    +0.000 C 
BRANCH  21  22
ATOM     22  C   UNL     1       4.773   6.820   4.910  0.00  0.00    -0.000 C 
BRANCH  22  23
ATOM     23  C   UNL     1       4.555   6.821   3.386  0.00  0.00    -0.000 C 
BRANCH  23  24
ATOM     24  C   UNL     1       5.593   7.675   2.627  0.00  0.00    -0.000 C 
BRANCH  24  25
ATOM     25  C   UNL     1       6.984   7.019   2.693  0.00  0.00    -0.003 C 
ATOM     26  C   UNL     1       7.943   7.677   1.697  0.00  0.00    +0.004 C 
ENDBRANCH  24  25
ENDBRANCH  23  24
ENDBRANCH  22  23
ENDBRANCH  21  22
ENDBRANCH  20  21
ENDBRANCH  19  20
ENDBRANCH   7  19
TORSDOF 11
