REMARK  Name = 2wbg_ligand
REMARK  12 active torsions:
REMARK  status: ('A' for Active; 'I' for Inactive)
REMARK    1  A    between atoms: O4_1  and  C4_2
REMARK    2  A    between atoms: C3_6  and  O3_7
REMARK    3  A    between atoms: C2_8  and  O2_9
REMARK    4  A    between atoms: C1_10  and  O1_11
REMARK    5  A    between atoms: N2_14  and  C8_15
REMARK    6  A    between atoms: C8_15  and  C9_16
REMARK    7  A    between atoms: C9_16  and  C10_17
REMARK    8  A    between atoms: C10_17  and  C11_18
REMARK    9  A    between atoms: C11_18  and  C12_19
REMARK   10  A    between atoms: C12_19  and  C13_20
REMARK   11  A    between atoms: C13_20  and  C14_21
REMARK   12  A    between atoms: C14_21  and  C15_22
REMARK                            x       y       z     vdW  Elec       q    Type
REMARK                         _______ _______ _______ _____ _____    ______ ____
ROOT
ATOM      1  C   UNL     1       7.180  -5.771   5.778  0.00  0.00    +0.175 C 
ATOM      2  C   UNL     1       7.733  -7.198   5.694  0.00  0.00    +0.178 C 
ATOM      3  C   UNL     1       8.848  -7.298   4.640  0.00  0.00    +0.199 C 
ATOM      4  C   UNL     1       8.495  -6.570   3.320  0.00  0.00    +0.268 C 
ATOM      5  N   UNL     1       7.423  -5.547   3.375  0.00  0.00    -0.213 N 
ATOM      6  C   UNL     1       7.118  -4.508   2.519  0.00  0.00    +0.244 C 
ATOM      7  N   UNL     1       7.720  -4.258   1.353  0.00  0.00    -0.361 NA
ATOM      8  O   UNL     1       6.050  -3.754   2.960  0.00  0.00    -0.255 OA
ATOM      9  C   UNL     1       5.719  -4.188   4.304  0.00  0.00    +0.244 C 
ATOM     10  C   UNL     1       6.433  -5.529   4.461  0.00  0.00    +0.174 C 
ENDROOT
BRANCH   1  11
ATOM     11  O   UNL     1       6.283  -5.665   6.870  0.00  0.00    -0.387 OA
ATOM     12  H   UNL     1       5.587  -6.319   6.776  0.00  0.00    +0.210 HD
ENDBRANCH   1  11
BRANCH   4  13
ATOM     13  O   UNL     1       9.647  -5.845   2.846  0.00  0.00    -0.367 OA
ATOM     14  H   UNL     1      10.095  -5.437   3.591  0.00  0.00    +0.212 HD
ENDBRANCH   4  13
BRANCH   3  15
ATOM     15  O   UNL     1       9.174  -8.656   4.326  0.00  0.00    -0.384 OA
ATOM     16  H   UNL     1       8.370  -9.181   4.306  0.00  0.00    +0.210 HD
ENDBRANCH   3  15
BRANCH   2  17
ATOM     17  O   UNL     1       8.317  -7.570   6.945  0.00  0.00    -0.386 OA
ATOM     18  H   UNL     1       7.688  -7.406   7.652  0.00  0.00    +0.210 HD
ENDBRANCH   2  17
BRANCH   7  19
ATOM     19  C   UNL     1       7.310  -3.317   0.302  0.00  0.00    +0.026 C 
BRANCH  19  20
ATOM     20  C   UNL     1       7.840  -3.752  -1.060  0.00  0.00    +0.002 C 
BRANCH  20  21
ATOM     21  C   UNL     1       7.371  -2.812  -2.180  0.00  0.00    +0.000 C 
BRANCH  21  22
ATOM     22  C   UNL     1       5.837  -2.610  -2.195  0.00  0.00    -0.000 C 
BRANCH  22  23
ATOM     23  C   UNL     1       5.304  -3.382  -3.415  0.00  0.00    -0.000 C 
BRANCH  23  24
ATOM     24  C   UNL     1       4.309  -4.500  -3.037  0.00  0.00    -0.000 C 
BRANCH  24  25
ATOM     25  C   UNL     1       3.604  -5.043  -4.292  0.00  0.00    -0.003 C 
ATOM     26  C   UNL     1       4.576  -5.119  -5.472  0.00  0.00    +0.004 C 
ENDBRANCH  24  25
ENDBRANCH  23  24
ENDBRANCH  22  23
ENDBRANCH  21  22
ENDBRANCH  20  21
ENDBRANCH  19  20
ENDBRANCH   7  19
TORSDOF 11
