REMARK  Name = 2wbg_ligand
REMARK  12 active torsions:
REMARK  status: ('A' for Active; 'I' for Inactive)
REMARK    1  A    between atoms: O4_1  and  C4_2
REMARK    2  A    between atoms: C3_6  and  O3_7
REMARK    3  A    between atoms: C2_8  and  O2_9
REMARK    4  A    between atoms: C1_10  and  O1_11
REMARK    5  A    between atoms: N2_14  and  C8_15
REMARK    6  A    between atoms: C8_15  and  C9_16
REMARK    7  A    between atoms: C9_16  and  C10_17
REMARK    8  A    between atoms: C10_17  and  C11_18
REMARK    9  A    between atoms: C11_18  and  C12_19
REMARK   10  A    between atoms: C12_19  and  C13_20
REMARK   11  A    between atoms: C13_20  and  C14_21
REMARK   12  A    between atoms: C14_21  and  C15_22
REMARK                            x       y       z     vdW  Elec       q    Type
REMARK                         _______ _______ _______ _____ _____    ______ ____
ROOT
ATOM      1  C   UNL     1      -0.316  -2.458   6.941  0.00  0.00    +0.175 C 
ATOM      2  C   UNL     1      -0.328  -0.932   6.787  0.00  0.00    +0.178 C 
ATOM      3  C   UNL     1      -1.031  -0.515   5.484  0.00  0.00    +0.199 C 
ATOM      4  C   UNL     1      -0.603  -1.372   4.268  0.00  0.00    +0.268 C 
ATOM      5  N   UNL     1       0.021  -2.687   4.550  0.00  0.00    -0.213 N 
ATOM      6  C   UNL     1       0.182  -3.803   3.753  0.00  0.00    +0.244 C 
ATOM      7  N   UNL     1      -0.140  -3.889   2.460  0.00  0.00    -0.361 NA
ATOM      8  O   UNL     1       0.789  -4.847   4.421  0.00  0.00    -0.255 OA
ATOM      9  C   UNL     1       0.878  -4.492   5.824  0.00  0.00    +0.244 C 
ATOM     10  C   UNL     1       0.629  -2.985   5.855  0.00  0.00    +0.174 C 
ENDROOT
BRANCH   1  11
ATOM     11  O   UNL     1       0.177  -2.808   8.223  0.00  0.00    -0.387 OA
ATOM     12  H   UNL     1       1.114  -2.603   8.272  0.00  0.00    +0.210 HD
ENDBRANCH   1  11
BRANCH   4  13
ATOM     13  O   UNL     1      -1.761  -1.697   3.475  0.00  0.00    -0.367 OA
ATOM     14  H   UNL     1      -2.231  -2.429   3.882  0.00  0.00    +0.212 HD
ENDBRANCH   4  13
BRANCH   3  15
ATOM     15  O   UNL     1      -0.800   0.861   5.163  0.00  0.00    -0.384 OA
ATOM     16  H   UNL     1      -0.305   0.918   4.341  0.00  0.00    +0.210 HD
ENDBRANCH   3  15
BRANCH   2  17
ATOM     17  O   UNL     1      -1.064  -0.339   7.858  0.00  0.00    -0.386 OA
ATOM     18  H   UNL     1      -0.983  -0.886   8.643  0.00  0.00    +0.210 HD
ENDBRANCH   2  17
BRANCH   7  19
ATOM     19  C   UNL     1       0.200  -4.955   1.507  0.00  0.00    +0.026 C 
BRANCH  19  20
ATOM     20  C   UNL     1       0.857  -4.382   0.257  0.00  0.00    +0.002 C 
BRANCH  20  21
ATOM     21  C   UNL     1      -0.183  -3.971  -0.796  0.00  0.00    +0.000 C 
BRANCH  21  22
ATOM     22  C   UNL     1      -0.063  -2.486  -1.214  0.00  0.00    -0.000 C 
BRANCH  22  23
ATOM     23  C   UNL     1      -1.225  -2.206  -2.183  0.00  0.00    -0.000 C 
BRANCH  23  24
ATOM     24  C   UNL     1      -2.229  -1.167  -1.639  0.00  0.00    -0.000 C 
BRANCH  24  25
ATOM     25  C   UNL     1      -1.629   0.249  -1.704  0.00  0.00    -0.003 C 
ATOM     26  C   UNL     1      -1.094   0.549  -3.107  0.00  0.00    +0.004 C 
ENDBRANCH  24  25
ENDBRANCH  23  24
ENDBRANCH  22  23
ENDBRANCH  21  22
ENDBRANCH  20  21
ENDBRANCH  19  20
ENDBRANCH   7  19
TORSDOF 11
