REMARK  Name = LIGAND
REMARK  7 active torsions:
REMARK  status: ('A' for Active; 'I' for Inactive)
REMARK    1  A    between atoms: C_5  and  C_10
REMARK    2  A    between atoms: N_7  and  C_15
REMARK    3  A    between atoms: C_8  and  C_11
REMARK    4  A    between atoms: N_12  and  C_13
REMARK    5  A    between atoms: C_13  and  C_14
REMARK    6  A    between atoms: C_15  and  C_16
REMARK    7  A    between atoms: C_20  and  C_27
REMARK                            x       y       z     vdW  Elec       q    Type
REMARK                         _______ _______ _______ _____ _____    ______ ____
ROOT
ATOM      1  C   UNL     1       3.902   9.710  25.819  0.00  0.00    +0.002 A 
ATOM      2  C   UNL     1       3.089  10.241  24.790  0.00  0.00    +0.004 A 
ATOM      3  C   UNL     1       3.402  10.036  23.419  0.00  0.00    -0.041 A 
ATOM      4  C   UNL     1       2.556  10.666  22.388  0.00  0.00    +0.044 C 
ATOM      5  C   UNL     1       4.565   9.243  23.041  0.00  0.00    +0.004 A 
ATOM      6  C   UNL     1       5.102   8.859  21.794  0.00  0.00    +0.041 A 
ATOM      7  C   UNL     1       6.179   7.963  22.171  0.00  0.00    +0.106 A 
ATOM      8  N   UNL     1       6.310   7.891  23.550  0.00  0.00    -0.332 N 
ATOM      9  C   UNL     1       5.324   8.711  24.082  0.00  0.00    +0.050 A 
ATOM     10  C   UNL     1       5.019   8.944  25.454  0.00  0.00    +0.026 A 
ENDROOT
BRANCH   7  11
ATOM     11  C   UNL     1       6.971   7.233  21.247  0.00  0.00    +0.261 C 
ATOM     12  O   UNL     1       8.118   6.882  21.536  0.00  0.00    -0.269 OA
ATOM     13  N   UNL     1       6.430   6.910  20.047  0.00  0.00    -0.306 N 
ATOM     14  H   UNL     1       5.468   7.198  19.819  0.00  0.00    +0.149 HD
BRANCH  13  15
ATOM     15  C   UNL     1       7.218   6.150  19.076  0.00  0.00    +0.140 C 
BRANCH  15  16
ATOM     16  C   UNL     1       7.525   4.693  19.415  0.00  0.00    -0.028 A 
ATOM     17  C   UNL     1       6.808   3.993  20.397  0.00  0.00    +0.025 A 
ATOM     18  C   UNL     1       7.021   2.614  20.608  0.00  0.00    +0.043 A 
ATOM     19 CL   UNL     1       6.032   1.751  21.785  0.00  0.00    -0.083 Cl
ATOM     20  C   UNL     1       7.985   1.940  19.833  0.00  0.00    +0.040 A 
ATOM     21  C   UNL     1       8.718   2.624  18.849  0.00  0.00    +0.043 A 
ATOM     22 CL   UNL     1       9.843   1.773  17.802  0.00  0.00    -0.083 Cl
ATOM     23  C   UNL     1       8.483   3.996  18.662  0.00  0.00    +0.025 A 
ENDBRANCH  15  16
ENDBRANCH  13  15
ENDBRANCH   7  11
BRANCH   8  24
ATOM     24  C   UNL     1       7.173   7.007  24.345  0.00  0.00    +0.157 C 
BRANCH  24  25
ATOM     25  C   UNL     1       8.466   7.643  24.788  0.00  0.00    -0.027 A 
ATOM     26  C   UNL     1       9.009   7.082  25.934  0.00  0.00    +0.021 A 
ATOM     27  C   UNL     1      10.273   7.469  26.356  0.00  0.00    +0.061 A 
ATOM     28  C   UNL     1      11.008   8.427  25.619  0.00  0.00    +0.016 A 
ATOM     29  C   UNL     1      10.443   9.043  24.485  0.00  0.00    +0.001 A 
ATOM     30  C   UNL     1       9.152   8.653  24.080  0.00  0.00    +0.005 A 
BRANCH  27  31
ATOM     31  C   UNL     1      10.742   6.855  27.586  0.00  0.00    +0.266 C 
ATOM     32  N   UNL     1       9.822   6.206  28.289  0.00  0.00    -0.250 N 
ATOM     33  H   UNL     1       8.850   6.164  27.950  0.00  0.00    +0.288 HD
ATOM     34  H   UNL     1      10.080   5.745  29.173  0.00  0.00    +0.288 HD
ATOM     35  N   UNL     1      12.020   6.887  27.970  0.00  0.00    -0.288 N 
ATOM     36  H   UNL     1      12.722   7.362  27.385  0.00  0.00    +0.301 HD
ATOM     37  H   UNL     1      12.304   6.437  28.852  0.00  0.00    +0.301 HD
ENDBRANCH  27  31
ENDBRANCH  24  25
ENDBRANCH   8  24
TORSDOF 6
