REMARK  Name = LIGAND
REMARK  7 active torsions:
REMARK  status: ('A' for Active; 'I' for Inactive)
REMARK    1  A    between atoms: C_5  and  C_10
REMARK    2  A    between atoms: N_7  and  C_15
REMARK    3  A    between atoms: C_8  and  C_11
REMARK    4  A    between atoms: N_12  and  C_13
REMARK    5  A    between atoms: C_13  and  C_14
REMARK    6  A    between atoms: C_15  and  C_16
REMARK    7  A    between atoms: C_20  and  C_27
REMARK                            x       y       z     vdW  Elec       q    Type
REMARK                         _______ _______ _______ _____ _____    ______ ____
ROOT
ATOM      1  C   UNL     1      -3.071   2.630  -0.835  0.00  0.00    +0.002 A 
ATOM      2  C   UNL     1      -2.790   3.918  -0.320  0.00  0.00    +0.004 A 
ATOM      3  C   UNL     1      -3.068   4.251   1.033  0.00  0.00    -0.041 A 
ATOM      4  C   UNL     1      -2.814   5.628   1.499  0.00  0.00    +0.044 C 
ATOM      5  C   UNL     1      -3.629   3.254   1.936  0.00  0.00    +0.004 A 
ATOM      6  C   UNL     1      -3.981   3.284   3.302  0.00  0.00    +0.041 A 
ATOM      7  C   UNL     1      -4.342   1.905   3.571  0.00  0.00    +0.106 A 
ATOM      8  N   UNL     1      -4.278   1.138   2.417  0.00  0.00    -0.332 N 
ATOM      9  C   UNL     1      -3.863   1.989   1.401  0.00  0.00    +0.050 A 
ATOM     10  C   UNL     1      -3.608   1.670   0.036  0.00  0.00    +0.026 A 
ENDROOT
BRANCH   7  11
ATOM     11  C   UNL     1      -4.683   1.404   4.854  0.00  0.00    +0.261 C 
ATOM     12  O   UNL     1      -4.094   1.799   5.864  0.00  0.00    -0.269 OA
ATOM     13  N   UNL     1      -5.687   0.498   4.947  0.00  0.00    -0.306 N 
ATOM     14  H   UNL     1      -6.179   0.183   4.100  0.00  0.00    +0.149 HD
BRANCH  13  15
ATOM     15  C   UNL     1      -6.068  -0.030   6.257  0.00  0.00    +0.140 C 
BRANCH  15  16
ATOM     16  C   UNL     1      -6.592  -1.464   6.305  0.00  0.00    -0.028 A 
ATOM     17  C   UNL     1      -7.686  -1.828   7.105  0.00  0.00    +0.025 A 
ATOM     18  C   UNL     1      -8.233  -3.127   7.040  0.00  0.00    +0.043 A 
ATOM     19 CL   UNL     1      -9.666  -3.516   7.990  0.00  0.00    -0.083 Cl
ATOM     20  C   UNL     1      -7.655  -4.075   6.173  0.00  0.00    +0.040 A 
ATOM     21  C   UNL     1      -6.555  -3.733   5.369  0.00  0.00    +0.043 A 
ATOM     22 CL   UNL     1      -5.895  -4.871   4.205  0.00  0.00    -0.083 Cl
ATOM     23  C   UNL     1      -6.033  -2.432   5.455  0.00  0.00    +0.025 A 
ENDBRANCH  15  16
ENDBRANCH  13  15
ENDBRANCH   7  11
BRANCH   8  24
ATOM     24  C   UNL     1      -4.428  -0.317   2.272  0.00  0.00    +0.157 C 
BRANCH  24  25
ATOM     25  C   UNL     1      -3.139  -1.086   2.417  0.00  0.00    -0.027 A 
ATOM     26  C   UNL     1      -3.101  -2.266   1.688  0.00  0.00    +0.021 A 
ATOM     27  C   UNL     1      -1.917  -2.986   1.609  0.00  0.00    +0.061 A 
ATOM     28  C   UNL     1      -0.753  -2.518   2.263  0.00  0.00    +0.016 A 
ATOM     29  C   UNL     1      -0.797  -1.350   3.050  0.00  0.00    +0.001 A 
ATOM     30  C   UNL     1      -2.010  -0.641   3.136  0.00  0.00    +0.005 A 
BRANCH  27  31
ATOM     31  C   UNL     1      -1.983  -4.226   0.855  0.00  0.00    +0.266 C 
ATOM     32  N   UNL     1      -3.146  -4.477   0.267  0.00  0.00    -0.250 N 
ATOM     33  H   UNL     1      -3.926  -3.811   0.363  0.00  0.00    +0.288 HD
ATOM     34  H   UNL     1      -3.269  -5.338  -0.285  0.00  0.00    +0.288 HD
ATOM     35  N   UNL     1      -0.937  -5.042   0.711  0.00  0.00    -0.288 N 
ATOM     36  H   UNL     1      -0.034  -4.803   1.143  0.00  0.00    +0.301 HD
ATOM     37  H   UNL     1      -1.034  -5.912   0.167  0.00  0.00    +0.301 HD
ENDBRANCH  27  31
ENDBRANCH  24  25
ENDBRANCH   8  24
TORSDOF 6
