REMARK  Name = LIGAND
REMARK  7 active torsions:
REMARK  status: ('A' for Active; 'I' for Inactive)
REMARK    1  A    between atoms: C_5  and  C_10
REMARK    2  A    between atoms: N_7  and  C_15
REMARK    3  A    between atoms: C_8  and  C_11
REMARK    4  A    between atoms: N_12  and  C_13
REMARK    5  A    between atoms: C_13  and  C_14
REMARK    6  A    between atoms: C_15  and  C_16
REMARK    7  A    between atoms: C_20  and  C_27
REMARK                            x       y       z     vdW  Elec       q    Type
REMARK                         _______ _______ _______ _____ _____    ______ ____
ROOT
ATOM      1  C   UNL     1      -1.865   4.890  -7.231  0.00  0.00    +0.002 A 
ATOM      2  C   UNL     1      -2.453   3.637  -7.526  0.00  0.00    +0.004 A 
ATOM      3  C   UNL     1      -1.689   2.571  -8.073  0.00  0.00    -0.041 A 
ATOM      4  C   UNL     1      -2.367   1.308  -8.421  0.00  0.00    +0.044 C 
ATOM      5  C   UNL     1      -0.263   2.739  -8.319  0.00  0.00    +0.004 A 
ATOM      6  C   UNL     1       0.734   1.876  -8.820  0.00  0.00    +0.041 A 
ATOM      7  C   UNL     1       1.946   2.657  -8.660  0.00  0.00    +0.106 A 
ATOM      8  N   UNL     1       1.663   3.923  -8.168  0.00  0.00    -0.332 N 
ATOM      9  C   UNL     1       0.287   3.976  -7.987  0.00  0.00    +0.050 A 
ATOM     10  C   UNL     1      -0.491   5.049  -7.465  0.00  0.00    +0.026 A 
ENDROOT
BRANCH   7  11
ATOM     11  C   UNL     1       3.251   2.174  -8.939  0.00  0.00    +0.261 C 
ATOM     12  O   UNL     1       3.699   1.187  -8.351  0.00  0.00    -0.269 OA
ATOM     13  N   UNL     1       3.985   2.810  -9.884  0.00  0.00    -0.306 N 
ATOM     14  H   UNL     1       3.598   3.627 -10.378  0.00  0.00    +0.149 HD
BRANCH  13  15
ATOM     15  C   UNL     1       5.331   2.331 -10.202  0.00  0.00    +0.140 C 
BRANCH  15  16
ATOM     16  C   UNL     1       5.528   1.650 -11.555  0.00  0.00    -0.028 A 
ATOM     17  C   UNL     1       5.444   0.258 -11.704  0.00  0.00    +0.025 A 
ATOM     18  C   UNL     1       5.503  -0.342 -12.980  0.00  0.00    +0.043 A 
ATOM     19 CL   UNL     1       5.298  -2.086 -13.133  0.00  0.00    -0.083 Cl
ATOM     20  C   UNL     1       5.671   0.474 -14.116  0.00  0.00    +0.040 A 
ATOM     21  C   UNL     1       5.763   1.870 -13.988  0.00  0.00    +0.043 A 
ATOM     22 CL   UNL     1       5.862   2.905 -15.404  0.00  0.00    -0.083 Cl
ATOM     23  C   UNL     1       5.700   2.437 -12.705  0.00  0.00    +0.025 A 
ENDBRANCH  15  16
ENDBRANCH  13  15
ENDBRANCH   7  11
BRANCH   8  24
ATOM     24  C   UNL     1       2.598   4.970  -7.735  0.00  0.00    +0.157 C 
BRANCH  24  25
ATOM     25  C   UNL     1       2.733   6.116  -8.705  0.00  0.00    -0.027 A 
ATOM     26  C   UNL     1       3.992   6.696  -8.725  0.00  0.00    +0.021 A 
ATOM     27  C   UNL     1       4.293   7.654  -9.683  0.00  0.00    +0.061 A 
ATOM     28  C   UNL     1       3.322   8.035 -10.638  0.00  0.00    +0.016 A 
ATOM     29  C   UNL     1       2.023   7.492 -10.592  0.00  0.00    +0.001 A 
ATOM     30  C   UNL     1       1.728   6.535  -9.603  0.00  0.00    +0.005 A 
BRANCH  27  31
ATOM     31  C   UNL     1       5.624   8.230  -9.601  0.00  0.00    +0.266 C 
ATOM     32  N   UNL     1       6.106   8.720 -10.736  0.00  0.00    -0.250 N 
ATOM     33  H   UNL     1       5.542   8.675 -11.597  0.00  0.00    +0.288 HD
ATOM     34  H   UNL     1       7.044   9.145 -10.757  0.00  0.00    +0.288 HD
ATOM     35  N   UNL     1       6.307   8.317  -8.458  0.00  0.00    -0.288 N 
ATOM     36  H   UNL     1       5.893   7.966  -7.582  0.00  0.00    +0.301 HD
ATOM     37  H   UNL     1       7.249   8.734  -8.451  0.00  0.00    +0.301 HD
ENDBRANCH  27  31
ENDBRANCH  24  25
ENDBRANCH   8  24
TORSDOF 6
