REMARK  Name = LIGAND
REMARK  15 active torsions:
REMARK  status: ('A' for Active; 'I' for Inactive)
REMARK    1  A    between atoms: C_1  and  O_2
REMARK    2  A    between atoms: C_6  and  C_9
REMARK    3  A    between atoms: C_7  and  C_8
REMARK    4  A    between atoms: N_11  and  C_12
REMARK    5  A    between atoms: C_12  and  C_13
REMARK    6  A    between atoms: C_12  and  C_20
REMARK    7  A    between atoms: C_13  and  C_14
REMARK    8  A    between atoms: C_20  and  O_21
REMARK    9  A    between atoms: C_20  and  C_22
REMARK   10  A    between atoms: C_27  and  C_28
REMARK   11  A    between atoms: C_27  and  C_29
REMARK   12  A    between atoms: C_30  and  C_31
REMARK   13  A    between atoms: N_33  and  C_34
REMARK   14  A    between atoms: C_34  and  C_35
REMARK   15  A    between atoms: C_36  and  C_41
REMARK                            x       y       z     vdW  Elec       q    Type
REMARK                         _______ _______ _______ _____ _____    ______ ____
ROOT
ATOM      1  C   UNL     1      20.868  -0.504  15.603  0.00  0.00    +0.220 C 
ENDROOT
BRANCH   1   2
ATOM      2  C   UNL     1      20.360  -1.785  14.942  0.00  0.00    +0.247 C 
ATOM      3  N   UNL     1      21.105  -2.923  15.130  0.00  0.00    -0.277 N 
ATOM      4  C   UNL     1      20.635  -4.226  14.610  0.00  0.00    +0.178 C 
ATOM      5  C   UNL     1      21.898  -5.137  14.596  0.00  0.00    +0.040 C 
ATOM      6  C   UNL     1      21.562  -6.638  14.515  0.00  0.00    +0.025 C 
ATOM      7  C   UNL     1      22.745  -4.760  13.379  0.00  0.00    +0.025 C 
ATOM      8  S   UNL     1      22.775  -4.705  16.144  0.00  0.00    -0.133 S 
ATOM      9  C   UNL     1      22.390  -2.947  15.922  0.00  0.00    +0.178 C 
ATOM     10  O   UNL     1      19.299  -1.864  14.288  0.00  0.00    -0.273 OA
BRANCH   4  11
ATOM     11  C   UNL     1      19.474  -4.746  15.483  0.00  0.00    +0.235 C 
ATOM     12  N   UNL     1      18.568  -5.561  14.791  0.00  0.00    -0.310 N 
ATOM     13  H   UNL     1      18.698  -5.715  13.781  0.00  0.00    +0.149 HD
ATOM     14  O   UNL     1      19.360  -4.502  16.721  0.00  0.00    -0.274 OA
BRANCH  12  15
ATOM     15  C   UNL     1      17.426  -6.206  15.483  0.00  0.00    +0.139 C 
BRANCH  15  16
ATOM     16  C   UNL     1      16.136  -5.981  14.682  0.00  0.00    -0.027 A 
ATOM     17  C   UNL     1      15.577  -7.073  14.028  0.00  0.00    +0.005 A 
ATOM     18  C   UNL     1      14.365  -6.959  13.309  0.00  0.00    +0.000 A 
ATOM     19  C   UNL     1      13.736  -5.747  13.296  0.00  0.00    +0.000 A 
ATOM     20  C   UNL     1      14.267  -4.624  13.979  0.00  0.00    +0.003 A 
ATOM     21  C   UNL     1      15.480  -4.731  14.667  0.00  0.00    -0.046 A 
ATOM     22  C   UNL     1      16.013  -3.575  15.420  0.00  0.00    +0.044 C 
ENDBRANCH  15  16
ENDBRANCH  12  15
ENDBRANCH   4  11
ENDBRANCH   1   2
BRANCH   1  23
ATOM     23  O   UNL     1      20.521   0.582  14.746  0.00  0.00    -0.381 OA
ATOM     24  H   UNL     1      21.177   1.362  14.897  0.00  0.00    +0.211 HD
ENDBRANCH   1  23
BRANCH   1  25
ATOM     25  C   UNL     1      20.173  -0.362  16.980  0.00  0.00    +0.115 C 
BRANCH  25  27
ATOM     26  C   UNL     1      21.848   0.267  18.666  0.00  0.00    +0.245 C 
ATOM     27  N   UNL     1      20.970   0.659  17.757  0.00  0.00    -0.305 N 
ATOM     28  H   UNL     1      20.830   1.664  17.579  0.00  0.00    +0.149 HD
ATOM     29  O   UNL     1      22.069  -0.990  18.943  0.00  0.00    -0.270 OA
BRANCH  26  33
ATOM     30  C   UNL     1      24.500   2.399  20.424  0.00  0.00    +0.120 A 
ATOM     31  C   UNL     1      23.950   1.358  19.605  0.00  0.00    +0.003 A 
ATOM     32  C   UNL     1      24.899   0.374  18.930  0.00  0.00    +0.048 C 
ATOM     33  C   UNL     1      22.533   1.347  19.433  0.00  0.00    +0.043 A 
ATOM     34  C   UNL     1      21.727   2.354  20.024  0.00  0.00    +0.013 A 
ATOM     35  C   UNL     1      22.339   3.432  20.726  0.00  0.00    +0.004 A 
ATOM     36  C   UNL     1      23.687   3.448  20.947  0.00  0.00    +0.046 A 
BRANCH  30  37
ATOM     37  O   UNL     1      25.856   2.446  20.562  0.00  0.00    -0.506 OA
ATOM     38  H   UNL     1      26.231   3.228  20.006  0.00  0.00    +0.292 HD
ENDBRANCH  30  37
ENDBRANCH  26  33
ENDBRANCH  25  27
BRANCH  25  39
ATOM     39  C   UNL     1      18.686   0.194  16.874  0.00  0.00    +0.060 C 
BRANCH  39  40
ATOM     40  C   UNL     1      18.148   0.637  18.212  0.00  0.00    -0.046 A 
ATOM     41  C   UNL     1      17.797  -0.295  19.213  0.00  0.00    +0.004 A 
ATOM     42  C   UNL     1      17.375   0.104  20.472  0.00  0.00    +0.000 A 
ATOM     43  C   UNL     1      17.324   1.460  20.812  0.00  0.00    +0.000 A 
ATOM     44  C   UNL     1      17.677   2.408  19.838  0.00  0.00    +0.000 A 
ATOM     45  C   UNL     1      18.094   2.032  18.521  0.00  0.00    +0.004 A 
ENDBRANCH  39  40
ENDBRANCH  25  39
ENDBRANCH   1  25
TORSDOF 11
