REMARK  Name = LIGAND
REMARK  15 active torsions:
REMARK  status: ('A' for Active; 'I' for Inactive)
REMARK    1  A    between atoms: C_1  and  O_2
REMARK    2  A    between atoms: C_6  and  C_9
REMARK    3  A    between atoms: C_7  and  C_8
REMARK    4  A    between atoms: N_11  and  C_12
REMARK    5  A    between atoms: C_12  and  C_13
REMARK    6  A    between atoms: C_12  and  C_20
REMARK    7  A    between atoms: C_13  and  C_14
REMARK    8  A    between atoms: C_20  and  O_21
REMARK    9  A    between atoms: C_20  and  C_22
REMARK   10  A    between atoms: C_27  and  C_28
REMARK   11  A    between atoms: C_27  and  C_29
REMARK   12  A    between atoms: C_30  and  C_31
REMARK   13  A    between atoms: N_33  and  C_34
REMARK   14  A    between atoms: C_34  and  C_35
REMARK   15  A    between atoms: C_36  and  C_41
REMARK                            x       y       z     vdW  Elec       q    Type
REMARK                         _______ _______ _______ _____ _____    ______ ____
ROOT
ATOM      1  C   UNL     1       4.982   6.338  -2.695  0.00  0.00    +0.220 C 
ENDROOT
BRANCH   1   2
ATOM      2  C   UNL     1       6.463   6.003  -2.867  0.00  0.00    +0.247 C 
ATOM      3  N   UNL     1       7.040   6.321  -4.072  0.00  0.00    -0.277 N 
ATOM      4  C   UNL     1       8.490   6.123  -4.290  0.00  0.00    +0.178 C 
ATOM      5  C   UNL     1       8.674   6.140  -5.836  0.00  0.00    +0.040 C 
ATOM      6  C   UNL     1      10.131   6.392  -6.270  0.00  0.00    +0.025 C 
ATOM      7  C   UNL     1       8.230   4.783  -6.385  0.00  0.00    +0.025 C 
ATOM      8  S   UNL     1       7.543   7.462  -6.404  0.00  0.00    -0.133 S 
ATOM      9  C   UNL     1       6.276   6.948  -5.213  0.00  0.00    +0.178 C 
ATOM     10  O   UNL     1       7.179   5.504  -1.973  0.00  0.00    -0.273 OA
BRANCH   4  11
ATOM     11  C   UNL     1       9.283   7.209  -3.533  0.00  0.00    +0.235 C 
ATOM     12  N   UNL     1      10.330   6.702  -2.752  0.00  0.00    -0.310 N 
ATOM     13  H   UNL     1      10.468   5.683  -2.693  0.00  0.00    +0.149 HD
ATOM     14  O   UNL     1       9.047   8.450  -3.632  0.00  0.00    -0.274 OA
BRANCH  12  15
ATOM     15  C   UNL     1      11.242   7.603  -2.007  0.00  0.00    +0.139 C 
BRANCH  15  16
ATOM     16  C   UNL     1      10.715   7.817  -0.581  0.00  0.00    -0.027 A 
ATOM     17  C   UNL     1       9.453   7.322  -0.272  0.00  0.00    +0.005 A 
ATOM     18  C   UNL     1       8.916   7.436   1.030  0.00  0.00    +0.000 A 
ATOM     19  C   UNL     1       9.684   8.025   1.994  0.00  0.00    +0.000 A 
ATOM     20  C   UNL     1      10.986   8.512   1.715  0.00  0.00    +0.003 A 
ATOM     21  C   UNL     1      11.506   8.423   0.420  0.00  0.00    -0.046 A 
ATOM     22  C   UNL     1      12.881   8.886   0.136  0.00  0.00    +0.044 C 
ENDBRANCH  15  16
ENDBRANCH  12  15
ENDBRANCH   4  11
ENDBRANCH   1   2
BRANCH   1  23
ATOM     23  O   UNL     1       4.235   5.295  -3.317  0.00  0.00    -0.381 OA
ATOM     24  H   UNL     1       3.828   5.641  -4.197  0.00  0.00    +0.211 HD
ENDBRANCH   1  23
BRANCH   1  25
ATOM     25  C   UNL     1       4.675   6.406  -1.178  0.00  0.00    +0.115 C 
BRANCH  25  27
ATOM     26  C   UNL     1       3.112   8.039  -0.212  0.00  0.00    +0.245 C 
ATOM     27  N   UNL     1       3.307   7.031  -1.047  0.00  0.00    -0.305 N 
ATOM     28  H   UNL     1       2.522   6.672  -1.610  0.00  0.00    +0.149 HD
ATOM     29  O   UNL     1       4.062   8.536   0.533  0.00  0.00    -0.270 OA
BRANCH  26  33
ATOM     30  C   UNL     1       0.050  10.236   0.470  0.00  0.00    +0.120 A 
ATOM     31  C   UNL     1       1.430   9.878   0.318  0.00  0.00    +0.003 A 
ATOM     32  C   UNL     1       2.496  10.942   0.549  0.00  0.00    +0.048 C 
ATOM     33  C   UNL     1       1.712   8.541  -0.097  0.00  0.00    +0.043 A 
ATOM     34  C   UNL     1       0.657   7.635  -0.378  0.00  0.00    +0.013 A 
ATOM     35  C   UNL     1      -0.694   8.082  -0.328  0.00  0.00    +0.004 A 
ATOM     36  C   UNL     1      -1.000   9.340   0.108  0.00  0.00    +0.046 A 
BRANCH  30  37
ATOM     37  O   UNL     1      -0.235  11.522   0.824  0.00  0.00    -0.506 OA
ATOM     38  H   UNL     1      -1.149  11.792   0.434  0.00  0.00    +0.292 HD
ENDBRANCH  30  37
ENDBRANCH  26  33
ENDBRANCH  25  27
BRANCH  25  39
ATOM     39  C   UNL     1       4.598   4.972  -0.493  0.00  0.00    +0.060 C 
BRANCH  39  40
ATOM     40  C   UNL     1       3.225   4.680   0.059  0.00  0.00    -0.046 A 
ATOM     41  C   UNL     1       2.191   4.174  -0.759  0.00  0.00    +0.004 A 
ATOM     42  C   UNL     1       0.950   3.829  -0.246  0.00  0.00    +0.000 A 
ATOM     43  C   UNL     1       0.691   3.932   1.125  0.00  0.00    +0.000 A 
ATOM     44  C   UNL     1       1.704   4.423   1.963  0.00  0.00    +0.000 A 
ATOM     45  C   UNL     1       2.989   4.811   1.464  0.00  0.00    +0.004 A 
ENDBRANCH  39  40
ENDBRANCH  25  39
ENDBRANCH   1  25
TORSDOF 11
