REMARK  Name = LIGAND
REMARK  15 active torsions:
REMARK  status: ('A' for Active; 'I' for Inactive)
REMARK    1  A    between atoms: C_1  and  O_2
REMARK    2  A    between atoms: C_6  and  C_9
REMARK    3  A    between atoms: C_7  and  C_8
REMARK    4  A    between atoms: N_11  and  C_12
REMARK    5  A    between atoms: C_12  and  C_13
REMARK    6  A    between atoms: C_12  and  C_20
REMARK    7  A    between atoms: C_13  and  C_14
REMARK    8  A    between atoms: C_20  and  O_21
REMARK    9  A    between atoms: C_20  and  C_22
REMARK   10  A    between atoms: C_27  and  C_28
REMARK   11  A    between atoms: C_27  and  C_29
REMARK   12  A    between atoms: C_30  and  C_31
REMARK   13  A    between atoms: N_33  and  C_34
REMARK   14  A    between atoms: C_34  and  C_35
REMARK   15  A    between atoms: C_36  and  C_41
REMARK                            x       y       z     vdW  Elec       q    Type
REMARK                         _______ _______ _______ _____ _____    ______ ____
ROOT
ATOM      1  C   UNL     1       1.820   2.539  -6.347  0.00  0.00    +0.220 C 
ENDROOT
BRANCH   1   2
ATOM      2  C   UNL     1       1.316   1.233  -6.959  0.00  0.00    +0.247 C 
ATOM      3  N   UNL     1       2.248   0.252  -7.192  0.00  0.00    -0.277 N 
ATOM      4  C   UNL     1       1.833  -1.079  -7.689  0.00  0.00    +0.178 C 
ATOM      5  C   UNL     1       3.132  -1.723  -8.258  0.00  0.00    +0.040 C 
ATOM      6  C   UNL     1       3.030  -3.251  -8.419  0.00  0.00    +0.025 C 
ATOM      7  C   UNL     1       3.411  -1.105  -9.629  0.00  0.00    +0.025 C 
ATOM      8  S   UNL     1       4.430  -1.237  -7.061  0.00  0.00    -0.133 S 
ATOM      9  C   UNL     1       3.719   0.424  -6.900  0.00  0.00    +0.178 C 
ATOM     10  O   UNL     1       0.117   0.994  -7.214  0.00  0.00    -0.273 OA
BRANCH   4  11
ATOM     11  C   UNL     1       1.164  -1.874  -6.550  0.00  0.00    +0.235 C 
ATOM     12  N   UNL     1       0.386  -2.952  -6.994  0.00  0.00    -0.310 N 
ATOM     13  H   UNL     1       0.274  -3.110  -8.005  0.00  0.00    +0.149 HD
ATOM     14  O   UNL     1       1.326  -1.615  -5.320  0.00  0.00    -0.274 OA
BRANCH  12  15
ATOM     15  C   UNL     1      -0.279  -3.870  -6.038  0.00  0.00    +0.139 C 
BRANCH  15  16
ATOM     16  C   UNL     1      -1.759  -3.491  -5.894  0.00  0.00    -0.027 A 
ATOM     17  C   UNL     1      -2.642  -3.933  -6.873  0.00  0.00    +0.005 A 
ATOM     18  C   UNL     1      -4.028  -3.667  -6.789  0.00  0.00    +0.000 A 
ATOM     19  C   UNL     1      -4.487  -2.985  -5.699  0.00  0.00    +0.000 A 
ATOM     20  C   UNL     1      -3.615  -2.549  -4.670  0.00  0.00    +0.003 A 
ATOM     21  C   UNL     1      -2.240  -2.788  -4.768  0.00  0.00    -0.046 A 
ATOM     22  C   UNL     1      -1.333  -2.377  -3.675  0.00  0.00    +0.044 C 
ENDBRANCH  15  16
ENDBRANCH  12  15
ENDBRANCH   4  11
ENDBRANCH   1   2
BRANCH   1  23
ATOM     23  O   UNL     1       2.525   3.243  -7.368  0.00  0.00    -0.381 OA
ATOM     24  H   UNL     1       2.315   2.820  -8.284  0.00  0.00    +0.211 HD
ENDBRANCH   1  23
BRANCH   1  25
ATOM     25  C   UNL     1       0.593   3.353  -5.865  0.00  0.00    +0.115 C 
BRANCH  25  27
ATOM     26  C   UNL     1       0.040   2.615  -3.586  0.00  0.00    +0.245 C 
ATOM     27  N   UNL     1       0.710   3.451  -4.362  0.00  0.00    -0.305 N 
ATOM     28  H   UNL     1       1.313   4.172  -3.940  0.00  0.00    +0.149 HD
ATOM     29  O   UNL     1      -0.744   1.683  -4.057  0.00  0.00    -0.270 OA
BRANCH  26  33
ATOM     30  C   UNL     1      -0.091   4.173  -0.090  0.00  0.00    +0.120 A 
ATOM     31  C   UNL     1      -0.326   4.026  -1.497  0.00  0.00    +0.003 A 
ATOM     32  C   UNL     1      -1.118   5.105  -2.227  0.00  0.00    +0.048 C 
ATOM     33  C   UNL     1       0.161   2.836  -2.116  0.00  0.00    +0.043 A 
ATOM     34  C   UNL     1       0.812   1.837  -1.346  0.00  0.00    +0.013 A 
ATOM     35  C   UNL     1       0.909   1.982   0.068  0.00  0.00    +0.004 A 
ATOM     36  C   UNL     1       0.495   3.128   0.684  0.00  0.00    +0.046 A 
BRANCH  30  37
ATOM     37  O   UNL     1      -0.588   5.286   0.522  0.00  0.00    -0.506 OA
ATOM     38  H   UNL     1      -0.496   6.095  -0.109  0.00  0.00    +0.292 HD
ENDBRANCH  30  37
ENDBRANCH  26  33
ENDBRANCH  25  27
BRANCH  25  39
ATOM     39  C   UNL     1       0.572   4.841  -6.426  0.00  0.00    +0.060 C 
BRANCH  39  40
ATOM     40  C   UNL     1      -0.556   5.064  -7.404  0.00  0.00    -0.046 A 
ATOM     41  C   UNL     1      -0.487   4.591  -8.732  0.00  0.00    +0.004 A 
ATOM     42  C   UNL     1      -1.548   4.722  -9.615  0.00  0.00    +0.000 A 
ATOM     43  C   UNL     1      -2.755   5.296  -9.200  0.00  0.00    +0.000 A 
ATOM     44  C   UNL     1      -2.854   5.766  -7.881  0.00  0.00    +0.000 A 
ATOM     45  C   UNL     1      -1.770   5.668  -6.951  0.00  0.00    +0.004 A 
ENDBRANCH  39  40
ENDBRANCH  25  39
ENDBRANCH   1  25
TORSDOF 11
