REMARK  Name = LIGAND
REMARK  15 active torsions:
REMARK  status: ('A' for Active; 'I' for Inactive)
REMARK    1  A    between atoms: C_1  and  O_2
REMARK    2  A    between atoms: C_6  and  C_9
REMARK    3  A    between atoms: C_7  and  C_8
REMARK    4  A    between atoms: N_11  and  C_12
REMARK    5  A    between atoms: C_12  and  C_13
REMARK    6  A    between atoms: C_12  and  C_20
REMARK    7  A    between atoms: C_13  and  C_14
REMARK    8  A    between atoms: C_20  and  O_21
REMARK    9  A    between atoms: C_20  and  C_22
REMARK   10  A    between atoms: C_27  and  C_28
REMARK   11  A    between atoms: C_27  and  C_29
REMARK   12  A    between atoms: C_30  and  C_31
REMARK   13  A    between atoms: N_33  and  C_34
REMARK   14  A    between atoms: C_34  and  C_35
REMARK   15  A    between atoms: C_36  and  C_41
REMARK                            x       y       z     vdW  Elec       q    Type
REMARK                         _______ _______ _______ _____ _____    ______ ____
ROOT
ATOM      1  C   UNL     1      -4.273   3.959   0.932  0.00  0.00    +0.220 C 
ENDROOT
BRANCH   1   2
ATOM      2  C   UNL     1      -5.740   4.279   0.647  0.00  0.00    +0.247 C 
ATOM      3  N   UNL     1      -6.104   5.603   0.652  0.00  0.00    -0.277 N 
ATOM      4  C   UNL     1      -7.479   6.009   0.289  0.00  0.00    +0.178 C 
ATOM      5  C   UNL     1      -7.636   7.455   0.844  0.00  0.00    +0.040 C 
ATOM      6  C   UNL     1      -8.808   8.226   0.207  0.00  0.00    +0.025 C 
ATOM      7  C   UNL     1      -7.875   7.364   2.352  0.00  0.00    +0.025 C 
ATOM      8  S   UNL     1      -6.019   8.242   0.499  0.00  0.00    -0.133 S 
ATOM      9  C   UNL     1      -5.136   6.724   0.950  0.00  0.00    +0.178 C 
ATOM     10  O   UNL     1      -6.605   3.421   0.371  0.00  0.00    -0.273 OA
BRANCH   4  11
ATOM     11  C   UNL     1      -7.674   5.879  -1.236  0.00  0.00    +0.235 C 
ATOM     12  N   UNL     1      -8.921   5.355  -1.604  0.00  0.00    -0.310 N 
ATOM     13  H   UNL     1      -9.579   5.058  -0.870  0.00  0.00    +0.149 HD
ATOM     14  O   UNL     1      -6.813   6.246  -2.090  0.00  0.00    -0.274 OA
BRANCH  12  15
ATOM     15  C   UNL     1      -9.312   5.221  -3.028  0.00  0.00    +0.139 C 
BRANCH  15  16
ATOM     16  C   UNL     1     -10.638   5.954  -3.276  0.00  0.00    -0.027 A 
ATOM     17  C   UNL     1     -10.857   7.150  -2.602  0.00  0.00    +0.005 A 
ATOM     18  C   UNL     1     -12.030   7.909  -2.812  0.00  0.00    +0.000 A 
ATOM     19  C   UNL     1     -12.939   7.451  -3.723  0.00  0.00    +0.000 A 
ATOM     20  C   UNL     1     -12.728   6.251  -4.447  0.00  0.00    +0.003 A 
ATOM     21  C   UNL     1     -11.579   5.487  -4.219  0.00  0.00    -0.046 A 
ATOM     22  C   UNL     1     -11.333   4.260  -5.006  0.00  0.00    +0.044 C 
ENDBRANCH  15  16
ENDBRANCH  12  15
ENDBRANCH   4  11
ENDBRANCH   1   2
BRANCH   1  23
ATOM     23  O   UNL     1      -4.105   3.969   2.349  0.00  0.00    -0.381 OA
ATOM     24  H   UNL     1      -3.798   3.037   2.664  0.00  0.00    +0.211 HD
ENDBRANCH   1  23
BRANCH   1  25
ATOM     25  C   UNL     1      -3.962   2.558   0.350  0.00  0.00    +0.115 C 
BRANCH  25  27
ATOM     26  C   UNL     1      -3.641   1.911  -2.000  0.00  0.00    +0.245 C 
ATOM     27  N   UNL     1      -3.405   2.786  -1.035  0.00  0.00    -0.305 N 
ATOM     28  H   UNL     1      -2.839   3.624  -1.230  0.00  0.00    +0.149 HD
ATOM     29  O   UNL     1      -4.345   0.827  -1.817  0.00  0.00    -0.270 OA
BRANCH  26  33
ATOM     30  C   UNL     1      -2.874   3.252  -5.504  0.00  0.00    +0.120 A 
ATOM     31  C   UNL     1      -3.536   3.122  -4.239  0.00  0.00    +0.003 A 
ATOM     32  C   UNL     1      -4.731   4.019  -3.938  0.00  0.00    +0.048 C 
ATOM     33  C   UNL     1      -2.989   2.183  -3.313  0.00  0.00    +0.043 A 
ATOM     34  C   UNL     1      -1.818   1.449  -3.636  0.00  0.00    +0.013 A 
ATOM     35  C   UNL     1      -1.133   1.708  -4.859  0.00  0.00    +0.004 A 
ATOM     36  C   UNL     1      -1.655   2.566  -5.785  0.00  0.00    +0.046 A 
BRANCH  30  37
ATOM     37  O   UNL     1      -3.361   4.176  -6.381  0.00  0.00    -0.506 OA
ATOM     38  H   UNL     1      -2.641   4.394  -7.085  0.00  0.00    +0.292 HD
ENDBRANCH  30  37
ENDBRANCH  26  33
ENDBRANCH  25  27
BRANCH  25  39
ATOM     39  C   UNL     1      -2.850   1.773   1.174  0.00  0.00    +0.060 C 
BRANCH  39  40
ATOM     40  C   UNL     1      -3.451   0.788   2.145  0.00  0.00    -0.046 A 
ATOM     41  C   UNL     1      -2.644   0.008   3.002  0.00  0.00    +0.004 A 
ATOM     42  C   UNL     1      -3.189  -0.844   3.950  0.00  0.00    +0.000 A 
ATOM     43  C   UNL     1      -4.575  -0.927   4.123  0.00  0.00    +0.000 A 
ATOM     44  C   UNL     1      -5.401  -0.155   3.291  0.00  0.00    +0.000 A 
ATOM     45  C   UNL     1      -4.872   0.717   2.285  0.00  0.00    +0.004 A 
ENDBRANCH  39  40
ENDBRANCH  25  39
ENDBRANCH   1  25
TORSDOF 11
