REMARK  26 active torsions:
REMARK  status: ('A' for Active; 'I' for Inactive)
REMARK    1  A    between atoms: N_1  and  CA_2 
REMARK    2  A    between atoms: CA_2  and  C_3 
REMARK       I    between atoms: C_3  and  N_9 
REMARK    3  A    between atoms: N_9  and  CA_10 
REMARK    4  A    between atoms: CA_10  and  C_11 
REMARK    5  A    between atoms: CA_10  and  CB_13 
REMARK       I    between atoms: C_11  and  N_17 
REMARK    6  A    between atoms: CB_13  and  OG_14 
REMARK    7  A    between atoms: N_17  and  CA_18 
REMARK    8  A    between atoms: CA_18  and  CB_21 
REMARK    9  A    between atoms: CA_18  and  C_19 
REMARK       I    between atoms: C_19  and  N_28 
REMARK   10  A    between atoms: CB_21  and  CG_22 
REMARK       I    between atoms: CG_22  and  ND2_23 
REMARK   11  A    between atoms: N_28  and  CA_29 
REMARK   12  A    between atoms: CA_29  and  C_30 
REMARK   13  A    between atoms: CA_29  and  CB_32 
REMARK       I    between atoms: C_30  and  N_36 
REMARK   14  A    between atoms: CB_32  and  OG_33 
REMARK   15  A    between atoms: N_36  and  CA_37 
REMARK   16  A    between atoms: CA_37  and  C_38 
REMARK   17  A    between atoms: CA_37  and  CB_40 
REMARK       I    between atoms: C_38  and  N_45 
REMARK   18  A    between atoms: CB_40  and  CG1_41 
REMARK   19  A    between atoms: N_45  and  CA_46 
REMARK   20  A    between atoms: CA_46  and  C_47 
REMARK       I    between atoms: C_47  and  N_51 
REMARK   21  A    between atoms: N_51  and  CA_52 
REMARK   22  A    between atoms: CA_52  and  CB_55 
REMARK   23  A    between atoms: CA_52  and  C_53 
REMARK       I    between atoms: C_53  and  N_59 
REMARK   24  A    between atoms: CB_55  and  OG_56 
REMARK   25  A    between atoms: N_59  and  CA_60 
REMARK   26  A    between atoms: CA_60  and  C_61 
ROOT
ATOM      1  CA  SER B   4       4.312  -1.207  -2.069  1.00  8.97     0.200 C 
ENDROOT
BRANCH   1   2
ATOM      2  C   SER B   4       4.814  -0.089  -2.984  1.00  8.68     0.243 C 
ATOM      3  N   ILE B   5       4.444   1.123  -2.639  1.00  8.45    -0.346 N 
ATOM      4  H02 ILE B   5       3.837   1.234  -1.839  1.00  8.45     0.163 HD
ATOM      5  O   SER B   4       5.478  -0.322  -3.917  1.00  8.87    -0.271 OA
BRANCH   3   6
ATOM      6  CA  ILE B   5       4.872   2.314  -3.360  1.00  9.02     0.180 C 
BRANCH   6   7
ATOM      7  C   ILE B   5       6.266   2.742  -2.922  1.00  8.73     0.241 C 
ATOM      8  N   ALA B   6       6.821   3.691  -3.630  1.00  9.49    -0.346 N 
ATOM      9  H02 ALA B   6       6.291   4.111  -4.380  1.00  9.49     0.163 HD
ATOM     10  O   ILE B   5       6.818   2.212  -1.986  1.00  8.41    -0.271 OA
BRANCH   8  11
ATOM     11  CA  ALA B   6       8.175   4.167  -3.379  1.00 10.62     0.172 C 
ATOM     12  CB  ALA B   6       9.127   2.961  -3.070  1.00 12.09     0.042 C 
BRANCH  11  13
ATOM     13  C   ALA B   6       8.681   4.963  -4.594  1.00 12.23     0.240 C 
ATOM     14  N   SER B   7       9.601   4.368  -5.334  1.00 15.01    -0.344 N 
ATOM     15  H02 SER B   7       9.903   3.435  -5.094  1.00 15.01     0.163 HD
ATOM     16  O   ALA B   6       8.286   6.013  -4.812  1.00 12.18    -0.271 OA
BRANCH  14  17
ATOM     17  CA  SER B   7      10.192   5.042  -6.501  1.00 17.25     0.200 C 
BRANCH  17  18
ATOM     18  CB  SER B   7      11.453   5.746  -6.101  1.00 18.03     0.199 C 
BRANCH  18  19
ATOM     19  OG  SER B   7      11.751   6.803  -6.985  0.50 18.87    -0.398 OA
ATOM     20  H01 SER B   7      11.836   7.621  -6.489  0.50 18.87     0.209 HD
ENDBRANCH  18  19
ENDBRANCH  17  18
BRANCH  17  21
ATOM     21  C   SER B   7      10.417   4.149  -7.708  1.00 18.59     0.242 C 
ATOM     22  N   GLY B   8      11.642   3.761  -7.981  1.00 20.09    -0.353 N 
ATOM     23  H02 GLY B   8      12.407   4.027  -7.378  1.00 20.09     0.162 HD
ATOM     24  O   SER B   7       9.460   3.779  -8.323  1.00 19.26    -0.271 OA
BRANCH  22  25
ATOM     25  CA  GLY B   8      11.884   2.947  -9.155  1.00 21.13     0.192 C 
BRANCH  25  26
ATOM     26  C   GLY B   8      12.904   3.626 -10.001  1.00 21.73     0.250 C 
ATOM     27  O   GLY B   8      12.773   3.493 -11.196  0.70 22.66    -0.305 OA
ENDBRANCH  25  26
ENDBRANCH  22  25
ENDBRANCH  17  21
ENDBRANCH  14  17
ENDBRANCH  11  13
ENDBRANCH   8  11
ENDBRANCH   6   7
BRANCH   6  28
ATOM     28  CB  ILE B   5       3.947   3.477  -3.000  1.00  9.61     0.013 C 
ATOM     29  CG2 ILE B   5       4.226   3.966  -1.634  1.00 13.28     0.012 C 
BRANCH  28  30
ATOM     30  CG1 ILE B   5       4.057   4.641  -4.008  1.00 11.65     0.002 C 
ATOM     31  CD1 ILE B   5       3.288   5.927  -3.523  1.00 12.81     0.005 C 
ENDBRANCH  28  30
ENDBRANCH   6  28
ENDBRANCH   3   6
ENDBRANCH   1   2
BRANCH   1  32
ATOM     32  CB  SER B   4       2.813  -1.508  -2.302  1.00  9.95     0.199 C 
BRANCH  32  33
ATOM     33  OG  SER B   4       2.149  -0.359  -2.923  0.80 13.01    -0.398 OA
ATOM     34  H01 SER B   4       1.200  -0.504  -2.931  0.80 13.01     0.209 HD
ENDBRANCH  32  33
ENDBRANCH   1  32
BRANCH   1  35
ATOM     35  N   SER B   4       4.574  -0.855  -0.662  1.00  8.70    -0.344 N 
ATOM     36  H02 SER B   4       4.951   0.059  -0.458  1.00  8.70     0.163 HD
ATOM     37  C   ASN B   3       4.339  -1.685   0.358  1.00  8.73     0.241 C 
ATOM     38  O   ASN B   3       3.878  -2.763   0.244  1.00  8.33    -0.271 OA
BRANCH  37  39
ATOM     39  CA  ASN B   3       4.688  -1.162   1.742  1.00  9.08     0.185 C 
BRANCH  39  40
ATOM     40  N   ASN B   3       3.931  -1.922   2.753  1.00  9.14    -0.345 N 
ATOM     41  H02 ASN B   3       4.043  -2.924   2.791  1.00  9.14     0.163 HD
ATOM     42  C   SER B   2       3.120  -1.347   3.599  1.00 10.70     0.243 C 
ATOM     43  O   SER B   2       3.027  -0.189   3.694  1.00 11.50    -0.271 OA
BRANCH  42  44
ATOM     44  CA  SER B   2       2.307  -2.309   4.486  1.00 12.08     0.200 C 
BRANCH  44  45
ATOM     45  CB  SER B   2       0.815  -2.223   4.195  1.00 12.79     0.199 C 
BRANCH  45  46
ATOM     46  OG  SER B   2       0.638  -2.383   2.814  0.60 12.39    -0.398 OA
ATOM     47  H01 SER B   2       1.458  -2.687   2.419  0.60 12.39     0.209 HD
ENDBRANCH  45  46
ENDBRANCH  44  45
BRANCH  44  48
ATOM     48  N   SER B   2       2.563  -2.030   5.890  1.00 12.98    -0.344 N 
ATOM     49  C   ALA B   1       3.557  -2.631   6.521  0.50 14.12     0.248 C 
ATOM     50  O   ALA B   1       4.376  -3.304   5.956  0.50 13.89    -0.271 OA
ATOM     51  H02 SER B   2       1.977  -1.373   6.387  1.00 12.98     0.163 HD
BRANCH  49  52
ATOM     52  CA  ALA B   1       3.635  -2.400   8.057  0.50 14.94     0.270 C 
ATOM     53  CB  ALA B   1       2.920  -3.505   8.937  0.50 15.51     0.050 C 
BRANCH  52  54
ATOM     54  N   ALA B   1       3.030  -1.120   8.369  0.50 15.82    -0.067 N 
ATOM     55  H02 ALA B   1       3.692  -0.381   8.187  0.50 15.82     0.275 HD
ATOM     56  H05 ALA B   1       2.763  -1.102   9.343  0.50 15.82     0.275 HD
ATOM     57  H07 ALA B   1       2.211  -0.987   7.794  0.50 15.82     0.275 HD
ENDBRANCH  52  54
ENDBRANCH  49  52
ENDBRANCH  44  48
ENDBRANCH  42  44
ENDBRANCH  39  40
BRANCH  39  58
ATOM     58  CB  ASN B   3       6.222  -1.277   1.942  1.00 10.18     0.137 C 
BRANCH  58  59
ATOM     59  CG  ASN B   3       6.796  -2.614   1.492  1.00 12.60     0.217 C 
ATOM     60  OD1 ASN B   3       6.777  -3.572   2.203  1.00 15.84    -0.274 OA
ATOM     61  ND2 ASN B   3       7.277  -2.652   0.269  1.00 14.10    -0.370 N 
ATOM     62  H05 ASN B   3       7.662  -3.512  -0.095  1.00 14.10     0.159 HD
ATOM     63  H01 ASN B   3       7.262  -1.822  -0.306  1.00 14.10     0.159 HD
ENDBRANCH  58  59
ENDBRANCH  39  58
ENDBRANCH  37  39
ENDBRANCH   1  35
TORSDOF 26
