REMARK  26 active torsions:
REMARK  status: ('A' for Active; 'I' for Inactive)
REMARK    1  A    between atoms: N_1  and  CA_2 
REMARK    2  A    between atoms: CA_2  and  C_3 
REMARK       I    between atoms: C_3  and  N_9 
REMARK    3  A    between atoms: N_9  and  CA_10 
REMARK    4  A    between atoms: CA_10  and  C_11 
REMARK    5  A    between atoms: CA_10  and  CB_13 
REMARK       I    between atoms: C_11  and  N_17 
REMARK    6  A    between atoms: CB_13  and  OG_14 
REMARK    7  A    between atoms: N_17  and  CA_18 
REMARK    8  A    between atoms: CA_18  and  CB_21 
REMARK    9  A    between atoms: CA_18  and  C_19 
REMARK       I    between atoms: C_19  and  N_28 
REMARK   10  A    between atoms: CB_21  and  CG_22 
REMARK       I    between atoms: CG_22  and  ND2_23 
REMARK   11  A    between atoms: N_28  and  CA_29 
REMARK   12  A    between atoms: CA_29  and  C_30 
REMARK   13  A    between atoms: CA_29  and  CB_32 
REMARK       I    between atoms: C_30  and  N_36 
REMARK   14  A    between atoms: CB_32  and  OG_33 
REMARK   15  A    between atoms: N_36  and  CA_37 
REMARK   16  A    between atoms: CA_37  and  C_38 
REMARK   17  A    between atoms: CA_37  and  CB_40 
REMARK       I    between atoms: C_38  and  N_45 
REMARK   18  A    between atoms: CB_40  and  CG1_41 
REMARK   19  A    between atoms: N_45  and  CA_46 
REMARK   20  A    between atoms: CA_46  and  C_47 
REMARK       I    between atoms: C_47  and  N_51 
REMARK   21  A    between atoms: N_51  and  CA_52 
REMARK   22  A    between atoms: CA_52  and  CB_55 
REMARK   23  A    between atoms: CA_52  and  C_53 
REMARK       I    between atoms: C_53  and  N_59 
REMARK   24  A    between atoms: CB_55  and  OG_56 
REMARK   25  A    between atoms: N_59  and  CA_60 
REMARK   26  A    between atoms: CA_60  and  C_61 
ROOT
ATOM      1  CA  SER B   4      -2.103  -5.358  -4.034  1.00  8.97     0.200 C 
ENDROOT
BRANCH   1   2
ATOM      2  C   SER B   4      -1.321  -5.722  -2.770  1.00  8.68     0.243 C 
ATOM      3  N   ILE B   5      -0.365  -4.883  -2.445  1.00  8.45    -0.346 N 
ATOM      4  H02 ILE B   5      -0.184  -4.096  -3.052  1.00  8.45     0.163 HD
ATOM      5  O   SER B   4      -1.576  -6.683  -2.156  1.00  8.87    -0.271 OA
BRANCH   3   6
ATOM      6  CA  ILE B   5       0.446  -5.039  -1.245  1.00  9.02     0.180 C 
BRANCH   6   7
ATOM      7  C   ILE B   5       0.670  -3.697  -0.562  1.00  8.73     0.241 C 
ATOM      8  N   ALA B   6       1.087  -3.748   0.677  1.00  9.49    -0.346 N 
ATOM      9  H02 ALA B   6       1.277  -4.650   1.088  1.00  9.49     0.163 HD
ATOM     10  O   ILE B   5       0.453  -2.657  -1.140  1.00  8.41    -0.271 OA
BRANCH   8  11
ATOM     11  CA  ALA B   6       1.286  -2.553   1.487  1.00 10.62     0.172 C 
ATOM     12  CB  ALA B   6       0.550  -2.699   2.862  1.00 12.09     0.042 C 
BRANCH  11  13
ATOM     13  C   ALA B   6       2.791  -2.312   1.697  1.00 12.23     0.240 C 
ATOM     14  N   SER B   7       3.295  -1.245   1.102  1.00 15.01    -0.344 N 
ATOM     15  H02 SER B   7       2.685  -0.637   0.573  1.00 15.01     0.163 HD
ATOM     16  O   ALA B   6       3.419  -3.037   2.318  1.00 12.18    -0.271 OA
BRANCH  14  17
ATOM     17  CA  SER B   7       4.728  -0.927   1.196  1.00 17.25     0.200 C 
BRANCH  17  18
ATOM     18  CB  SER B   7       5.146  -0.097   0.019  1.00 18.03     0.199 C 
BRANCH  18  19
ATOM     19  OG  SER B   7       4.177  -0.135  -1.004  0.50 18.87    -0.398 OA
ATOM     20  H01 SER B   7       4.243   0.660  -1.538  0.50 18.87     0.209 HD
ENDBRANCH  18  19
ENDBRANCH  17  18
BRANCH  17  21
ATOM     21  C   SER B   7       5.156  -0.286   2.503  1.00 18.59     0.242 C 
ATOM     22  N   GLY B   8       4.385   0.637   3.032  1.00 20.09    -0.353 N 
ATOM     23  H02 GLY B   8       3.512   0.886   2.589  1.00 20.09     0.162 HD
ATOM     24  O   SER B   7       6.145  -0.696   3.037  1.00 19.26    -0.271 OA
BRANCH  22  25
ATOM     25  CA  GLY B   8       4.798   1.294   4.255  1.00 21.13     0.192 C 
BRANCH  25  26
ATOM     26  C   GLY B   8       5.809   2.333   3.918  1.00 21.73     0.250 C 
ATOM     27  O   GLY B   8       6.740   2.433   4.683  0.70 22.66    -0.305 OA
ENDBRANCH  25  26
ENDBRANCH  22  25
ENDBRANCH  17  21
ENDBRANCH  14  17
ENDBRANCH  11  13
ENDBRANCH   8  11
ENDBRANCH   6   7
BRANCH   6  28
ATOM     28  CB  ILE B   5       1.835  -5.542  -1.641  1.00  9.61     0.013 C 
ATOM     29  CG2 ILE B   5       1.782  -6.964  -2.041  1.00 13.28     0.012 C 
BRANCH  28  30
ATOM     30  CG1 ILE B   5       2.459  -4.699  -2.773  1.00 11.65     0.002 C 
ATOM     31  CD1 ILE B   5       3.709  -5.402  -3.423  1.00 12.81     0.005 C 
ENDBRANCH  28  30
ENDBRANCH   6  28
ENDBRANCH   3   6
ENDBRANCH   1   2
BRANCH   1  32
ATOM     32  CB  SER B   4      -1.162  -5.077  -5.228  1.00  9.95     0.199 C 
BRANCH  32  33
ATOM     33  OG  SER B   4      -0.597  -3.728  -5.130  0.80 13.01    -0.398 OA
ATOM     34  H01 SER B   4      -0.934  -3.187  -5.849  0.80 13.01     0.209 HD
ENDBRANCH  32  33
ENDBRANCH   1  32
BRANCH   1  35
ATOM     35  N   SER B   4      -2.981  -4.205  -3.762  1.00  8.70    -0.344 N 
ATOM     36  H02 SER B   4      -2.553  -3.309  -3.580  1.00  8.70     0.163 HD
ATOM     37  C   ASN B   3      -4.313  -4.287  -3.743  1.00  8.73     0.241 C 
ATOM     38  O   ASN B   3      -4.922  -5.271  -3.964  1.00  8.33    -0.271 OA
BRANCH  37  39
ATOM     39  CA  ASN B   3      -5.060  -3.001  -3.425  1.00  9.08     0.185 C 
BRANCH  39  40
ATOM     40  N   ASN B   3      -5.791  -3.166  -2.156  1.00  9.14    -0.345 N 
ATOM     41  H02 ASN B   3      -5.290  -3.044  -1.287  1.00  9.14     0.163 HD
ATOM     42  C   SER B   2      -7.061  -3.463  -2.113  1.00 10.70     0.243 C 
ATOM     43  O   SER B   2      -7.731  -3.503  -3.066  1.00 11.50    -0.271 OA
BRANCH  42  44
ATOM     44  CA  SER B   2      -7.624  -3.736  -0.705  1.00 12.08     0.200 C 
BRANCH  44  45
ATOM     45  CB  SER B   2      -7.665  -2.473   0.143  1.00 12.79     0.199 C 
BRANCH  45  46
ATOM     46  OG  SER B   2      -6.367  -1.946   0.190  0.60 12.39    -0.398 OA
ATOM     47  H01 SER B   2      -6.409  -1.012   0.407  0.60 12.39     0.209 HD
ENDBRANCH  45  46
ENDBRANCH  44  45
BRANCH  44  48
ATOM     48  N   SER B   2      -6.834  -4.762  -0.042  1.00 12.98    -0.344 N 
ATOM     49  C   ALA B   1      -7.018  -6.039  -0.334  0.50 14.12     0.248 C 
ATOM     50  O   ALA B   1      -7.713  -6.408  -1.240  0.50 13.89    -0.271 OA
ATOM     51  H02 SER B   2      -6.142  -4.498   0.644  1.00 12.98     0.163 HD
BRANCH  49  52
ATOM     52  CA  ALA B   1      -6.253  -7.062   0.555  0.50 14.94     0.270 C 
ATOM     53  CB  ALA B   1      -6.233  -8.545   0.001  0.50 15.51     0.050 C 
BRANCH  52  54
ATOM     54  N   ALA B   1      -6.860  -7.085   1.871  0.50 15.82    -0.067 N 
ATOM     55  H02 ALA B   1      -6.145  -6.968   2.574  0.50 15.82     0.275 HD
ATOM     56  H05 ALA B   1      -7.329  -7.969   2.010  0.50 15.82     0.275 HD
ATOM     57  H07 ALA B   1      -7.530  -6.334   1.945  0.50 15.82     0.275 HD
ENDBRANCH  52  54
ENDBRANCH  49  52
ENDBRANCH  44  48
ENDBRANCH  42  44
ENDBRANCH  39  40
BRANCH  39  58
ATOM     58  CB  ASN B   3      -4.038  -1.835  -3.371  1.00 10.18     0.137 C 
BRANCH  58  59
ATOM     59  CG  ASN B   3      -3.997  -1.003  -4.646  1.00 12.60     0.217 C 
ATOM     60  OD1 ASN B   3      -4.996  -0.594  -5.156  1.00 15.84    -0.274 OA
ATOM     61  ND2 ASN B   3      -2.802  -0.737  -5.124  1.00 14.10    -0.370 N 
ATOM     62  H05 ASN B   3      -2.705  -0.179  -5.960  1.00 14.10     0.159 HD
ATOM     63  H01 ASN B   3      -1.980  -1.091  -4.654  1.00 14.10     0.159 HD
ENDBRANCH  58  59
ENDBRANCH  39  58
ENDBRANCH  37  39
ENDBRANCH   1  35
TORSDOF 26
