REMARK  Name = LIGAND
REMARK  8 active torsions:
REMARK  status: ('A' for Active; 'I' for Inactive)
REMARK    1  A    between atoms: C_5  and  C_11
REMARK    2  A    between atoms: N_19  and  C_21
REMARK    3  A    between atoms: C_22  and  C_66
REMARK    4  A    between atoms: C_27  and  N_30
REMARK    5  A    between atoms: C_32  and  C_33
REMARK    6  A    between atoms: C_38  and  C_43
REMARK    7  A    between atoms: C_43  and  N_46
REMARK    8  A    between atoms: N_53  and  C_55
REMARK                            x       y       z     vdW  Elec       q    Type
REMARK                         _______ _______ _______ _____ _____    ______ ____
ROOT
ATOM      1  C   UNL     1       1.713  -1.577  -0.960  0.00  0.00    +0.038 A 
ATOM      2  C   UNL     1       2.535  -2.572  -0.428  0.00  0.00    +0.047 A 
ATOM      3  C   UNL     1       2.331  -3.914  -0.757  0.00  0.00    +0.035 A 
ATOM      4  C   UNL     1       1.270  -4.258  -1.592  0.00  0.00    +0.024 A 
ATOM      5  C   UNL     1       0.440  -3.264  -2.111  0.00  0.00    +0.007 A 
ATOM      6  C   UNL     1       0.654  -1.926  -1.798  0.00  0.00    -0.029 A 
ATOM      7  C   UNL     1      -0.270  -0.876  -2.373  0.00  0.00    +0.045 C 
ENDROOT
BRANCH   1  11
ATOM      8  C   UNL     1       3.630   2.702  -1.488  0.00  0.00    +0.077 A 
ATOM      9  N   UNL     1       2.772   1.833  -0.922  0.00  0.00    -0.214 NA
ATOM     10  C   UNL     1       2.799   0.523  -1.248  0.00  0.00    +0.220 A 
ATOM     11  N   UNL     1       1.914  -0.278  -0.628  0.00  0.00    -0.283 N 
ATOM     12  H   UNL     1       1.358   0.119   0.144  0.00  0.00    +0.155 HD
ATOM     13  N   UNL     1       3.708   0.048  -2.134  0.00  0.00    -0.223 NA
ATOM     14  C   UNL     1       4.579   0.888  -2.724  0.00  0.00    +0.116 A 
ATOM     15  C   UNL     1       4.560   2.248  -2.423  0.00  0.00    +0.048 A 
BRANCH   8  20
ATOM     16  C   UNL     1       3.035   5.844   0.504  0.00  0.00    +0.020 A 
ATOM     17  C   UNL     1       3.430   6.780  -0.445  0.00  0.00    +0.111 A 
ATOM     18  N   UNL     1       3.863   6.397  -1.665  0.00  0.00    -0.263 NA
ATOM     19  C   UNL     1       3.941   5.102  -2.012  0.00  0.00    +0.120 A 
ATOM     20  C   UNL     1       3.560   4.126  -1.096  0.00  0.00    +0.019 A 
ATOM     21  C   UNL     1       3.095   4.490   0.167  0.00  0.00    +0.013 A 
ENDBRANCH   8  20
ENDBRANCH   1  11
BRANCH   3  22
ATOM     22  N   UNL     1       3.110  -4.964  -0.243  0.00  0.00    -0.281 N 
ATOM     23  H   UNL     1       3.898  -5.294  -0.819  0.00  0.00    +0.155 HD
ATOM     24  C   UNL     1       2.913  -5.565   0.926  0.00  0.00    +0.248 C 
ATOM     25  O   UNL     1       2.035  -5.234   1.693  0.00  0.00    -0.270 OA
BRANCH  24  26
ATOM     26  C   UNL     1       3.800  -6.712   1.295  0.00  0.00    +0.037 A 
ATOM     27  C   UNL     1       4.953  -6.965   0.557  0.00  0.00    +0.013 A 
ATOM     28  C   UNL     1       5.780  -8.032   0.897  0.00  0.00    +0.005 A 
ATOM     29  C   UNL     1       5.429  -8.842   1.974  0.00  0.00    -0.033 A 
ATOM     30  C   UNL     1       4.268  -8.602   2.709  0.00  0.00    +0.005 A 
ATOM     31  C   UNL     1       3.446  -7.532   2.367  0.00  0.00    +0.013 A 
BRANCH  29  32
ATOM     32  C   UNL     1       6.307 -10.011   2.346  0.00  0.00    +0.119 C 
BRANCH  32  33
ATOM     33  N   UNL     1       7.631  -9.616   2.804  0.00  0.00    -0.302 NA
ATOM     34  C   UNL     1       8.451 -10.785   3.110  0.00  0.00    +0.066 C 
ATOM     35  C   UNL     1       9.888 -10.384   3.407  0.00  0.00    -0.064 C 
ATOM     36  N   UNL     1       9.908  -9.210   4.273  0.00  0.00    +0.379 N 
ATOM     37  H   UNL     1       9.399  -9.530   5.088  0.00  0.00    -0.082 HD
ATOM     38  C   UNL     1      11.211  -8.887   4.845  0.00  0.00    -0.096 C 
ATOM     39  C   UNL     1       9.138  -8.041   3.872  0.00  0.00    -0.064 C 
ATOM     40  C   UNL     1       7.689  -8.480   3.718  0.00  0.00    +0.066 C 
ENDBRANCH  32  33
ENDBRANCH  29  32
ENDBRANCH  24  26
ENDBRANCH   3  22
TORSDOF 6
