REMARK  Name = LIGAND
REMARK  8 active torsions:
REMARK  status: ('A' for Active; 'I' for Inactive)
REMARK    1  A    between atoms: C_5  and  C_11
REMARK    2  A    between atoms: N_19  and  C_21
REMARK    3  A    between atoms: C_22  and  C_66
REMARK    4  A    between atoms: C_27  and  N_30
REMARK    5  A    between atoms: C_32  and  C_33
REMARK    6  A    between atoms: C_38  and  C_43
REMARK    7  A    between atoms: C_43  and  N_46
REMARK    8  A    between atoms: N_53  and  C_55
REMARK                            x       y       z     vdW  Elec       q    Type
REMARK                         _______ _______ _______ _____ _____    ______ ____
ROOT
ATOM      1  C   UNL     1       1.214  -0.738  -1.326  0.00  0.00    +0.038 A 
ATOM      2  C   UNL     1       0.245  -1.739  -1.233  0.00  0.00    +0.047 A 
ATOM      3  C   UNL     1      -0.997  -1.585  -1.853  0.00  0.00    +0.035 A 
ATOM      4  C   UNL     1      -1.278  -0.402  -2.534  0.00  0.00    +0.024 A 
ATOM      5  C   UNL     1      -0.314   0.604  -2.613  0.00  0.00    +0.007 A 
ATOM      6  C   UNL     1       0.929   0.443  -2.011  0.00  0.00    -0.029 A 
ATOM      7  C   UNL     1       1.947   1.556  -2.112  0.00  0.00    +0.045 C 
ENDROOT
BRANCH   1  11
ATOM      8  C   UNL     1       4.303  -0.154   2.192  0.00  0.00    +0.077 A 
ATOM      9  N   UNL     1       3.901  -0.693   1.026  0.00  0.00    -0.214 NA
ATOM     10  C   UNL     1       2.737  -0.314   0.456  0.00  0.00    +0.220 A 
ATOM     11  N   UNL     1       2.414  -0.894  -0.714  0.00  0.00    -0.283 N 
ATOM     12  H   UNL     1       3.119  -1.490  -1.171  0.00  0.00    +0.155 HD
ATOM     13  N   UNL     1       1.960   0.636   1.032  0.00  0.00    -0.223 NA
ATOM     14  C   UNL     1       2.328   1.193   2.200  0.00  0.00    +0.116 A 
ATOM     15  C   UNL     1       3.513   0.807   2.822  0.00  0.00    +0.048 A 
BRANCH   8  20
ATOM     16  C   UNL     1       6.841  -1.997   4.280  0.00  0.00    +0.020 A 
ATOM     17  C   UNL     1       7.993  -1.363   3.830  0.00  0.00    +0.111 A 
ATOM     18  N   UNL     1       7.935  -0.388   2.898  0.00  0.00    -0.263 NA
ATOM     19  C   UNL     1       6.769   0.004   2.360  0.00  0.00    +0.120 A 
ATOM     20  C   UNL     1       5.587  -0.602   2.775  0.00  0.00    +0.019 A 
ATOM     21  C   UNL     1       5.613  -1.603   3.745  0.00  0.00    +0.013 A 
ENDBRANCH   8  20
ENDBRANCH   1  11
BRANCH   3  22
ATOM     22  N   UNL     1      -2.021  -2.544  -1.784  0.00  0.00    -0.281 N 
ATOM     23  H   UNL     1      -2.930  -2.239  -1.406  0.00  0.00    +0.155 HD
ATOM     24  C   UNL     1      -1.912  -3.813  -2.165  0.00  0.00    +0.248 C 
ATOM     25  O   UNL     1      -0.898  -4.266  -2.650  0.00  0.00    -0.270 OA
BRANCH  24  26
ATOM     26  C   UNL     1      -3.084  -4.719  -1.963  0.00  0.00    +0.037 A 
ATOM     27  C   UNL     1      -3.863  -4.605  -0.815  0.00  0.00    +0.013 A 
ATOM     28  C   UNL     1      -4.954  -5.448  -0.624  0.00  0.00    +0.005 A 
ATOM     29  C   UNL     1      -5.244  -6.408  -1.591  0.00  0.00    -0.033 A 
ATOM     30  C   UNL     1      -4.460  -6.536  -2.737  0.00  0.00    +0.005 A 
ATOM     31  C   UNL     1      -3.372  -5.689  -2.925  0.00  0.00    +0.013 A 
BRANCH  29  32
ATOM     32  C   UNL     1      -6.414  -7.339  -1.391  0.00  0.00    +0.119 C 
BRANCH  32  33
ATOM     33  N   UNL     1      -7.437  -7.209  -2.419  0.00  0.00    -0.302 NA
ATOM     34  C   UNL     1      -7.754  -5.805  -2.669  0.00  0.00    +0.066 C 
ATOM     35  C   UNL     1      -8.681  -5.658  -3.867  0.00  0.00    -0.064 C 
ATOM     36  N   UNL     1      -9.736  -6.664  -3.807  0.00  0.00    +0.379 N 
ATOM     37  H   UNL     1     -10.183  -6.461  -2.921  0.00  0.00    -0.082 HD
ATOM     38  C   UNL     1     -10.835  -6.463  -4.745  0.00  0.00    -0.096 C 
ATOM     39  C   UNL     1      -9.353  -8.060  -3.642  0.00  0.00    -0.064 C 
ATOM     40  C   UNL     1      -8.540  -8.162  -2.359  0.00  0.00    +0.066 C 
ENDBRANCH  32  33
ENDBRANCH  29  32
ENDBRANCH  24  26
ENDBRANCH   3  22
TORSDOF 6
