REMARK  Name = LIGAND
REMARK  6 active torsions:
REMARK  status: ('A' for Active; 'I' for Inactive)
REMARK    1  A    between atoms: CG_2  and  CB_4
REMARK    2  A    between atoms: CB_4  and  CA_5
REMARK    3  A    between atoms: CA_5  and  C_6
REMARK    4  A    between atoms: CA_5  and  N_9
REMARK    5  A    between atoms: C_10  and  C_12
REMARK    6  A    between atoms: C_12  and  C_13
REMARK                            x       y       z     vdW  Elec       q    Type
REMARK                         _______ _______ _______ _____ _____    ______ ____
ROOT
ATOM      1  N   ASP A   1      48.321  28.178  12.798  0.00  0.00    -0.302 N 
ATOM      2  H   ASP A   1      49.202  28.712  12.794  0.00  0.00    +0.150 HD
ATOM      3  C   UNK A   0      47.819  27.716  14.025  0.00  0.00    +0.218 C 
ATOM      4  O   UNK A   0      46.819  27.024  14.088  0.00  0.00    -0.275 OA
ENDROOT
BRANCH   1   5
ATOM      5  CA  ASP A   1      47.641  27.931  11.521  0.00  0.00    +0.197 C 
BRANCH   5   6
ATOM      6  C   ASP A   1      48.505  28.579  10.443  0.00  0.00    +0.376 C 
ATOM      7  OXT ASP A   1      48.562  28.039   9.297  0.00  0.00    -0.244 OA
ATOM      8  O   ASP A   1      49.241  29.661  10.756  0.00  0.00    -0.244 OA
ENDBRANCH   5   6
BRANCH   5   9
ATOM      9  CB  ASP A   1      46.203  28.553  11.569  0.00  0.00    +0.159 C 
BRANCH   9  11
ATOM     10  OD1 ASP A   1      45.223  28.288   9.308  0.00  0.00    -0.246 OA
ATOM     11  CG  ASP A   1      45.857  29.094  10.167  0.00  0.00    +0.358 C 
ATOM     12  OD2 ASP A   1      46.151  30.331   9.870  0.00  0.00    -0.246 OA
ENDBRANCH   9  11
ENDBRANCH   5   9
ENDBRANCH   1   5
BRANCH   3  13
ATOM     13  C   UNK A   0      48.635  28.062  15.267  0.00  0.00    +0.133 C 
BRANCH  13  14
ATOM     14  C   UNK A   0      50.002  27.379  15.176  0.00  0.00    -0.014 A 
ATOM     15  C   UNK A   0      50.210  25.988  15.042  0.00  0.00    +0.003 A 
ATOM     16  C   UNK A   0      51.591  25.788  15.016  0.00  0.00    +0.047 A 
ATOM     17  C   UNK A   0      52.103  24.493  14.891  0.00  0.00    +0.026 A 
ATOM     18  C   UNK A   0      51.235  23.421  14.796  0.00  0.00    +0.002 A 
ATOM     19  C   UNK A   0      49.865  23.637  14.829  0.00  0.00    +0.001 A 
ATOM     20  N   UNK A   0      52.218  27.015  15.178  0.00  0.00    -0.360 N 
ATOM     21  H   UNK A   0      53.237  27.164  15.205  0.00  0.00    +0.165 HD
ATOM     22  C   UNK A   0      49.327  24.911  14.969  0.00  0.00    +0.010 A 
ATOM     23  C   UNK A   0      51.255  28.014  15.299  0.00  0.00    +0.087 A 
ENDBRANCH  13  14
ENDBRANCH   3  13
TORSDOF 6
