REMARK  Name = LIGAND
REMARK  6 active torsions:
REMARK  status: ('A' for Active; 'I' for Inactive)
REMARK    1  A    between atoms: CG_2  and  CB_4
REMARK    2  A    between atoms: CB_4  and  CA_5
REMARK    3  A    between atoms: CA_5  and  C_6
REMARK    4  A    between atoms: CA_5  and  N_9
REMARK    5  A    between atoms: C_10  and  C_12
REMARK    6  A    between atoms: C_12  and  C_13
REMARK                            x       y       z     vdW  Elec       q    Type
REMARK                         _______ _______ _______ _____ _____    ______ ____
ROOT
ATOM      1  N   ASP A   1       3.107   5.763  -3.147  0.00  0.00    -0.302 N 
ATOM      2  H   ASP A   1       3.075   6.758  -3.410  0.00  0.00    +0.150 HD
ATOM      3  C   UNK A   0       3.213   4.800  -4.164  0.00  0.00    +0.218 C 
ATOM      4  O   UNK A   0       3.189   3.607  -3.921  0.00  0.00    -0.275 OA
ENDROOT
BRANCH   1   5
ATOM      5  CA  ASP A   1       3.041   5.408  -1.725  0.00  0.00    +0.197 C 
BRANCH   5   6
ATOM      6  C   ASP A   1       1.565   5.191  -1.405  0.00  0.00    +0.376 C 
ATOM      7  OXT ASP A   1       1.068   4.035  -1.558  0.00  0.00    -0.244 OA
ATOM      8  O   ASP A   1       0.812   6.246  -1.042  0.00  0.00    -0.244 OA
ENDBRANCH   5   6
BRANCH   5   9
ATOM      9  CB  ASP A   1       3.660   6.567  -0.870  0.00  0.00    +0.159 C 
BRANCH   9  11
ATOM     10  OD1 ASP A   1       4.641   4.771   0.527  0.00  0.00    -0.246 OA
ATOM     11  CG  ASP A   1       4.096   5.992   0.492  0.00  0.00    +0.358 C 
ATOM     12  OD2 ASP A   1       3.964   6.723   1.566  0.00  0.00    -0.246 OA
ENDBRANCH   9  11
ENDBRANCH   5   9
ENDBRANCH   1   5
BRANCH   3  13
ATOM     13  C   UNK A   0       3.282   5.327  -5.594  0.00  0.00    +0.133 C 
BRANCH  13  14
ATOM     14  C   UNK A   0       1.979   4.980  -6.320  0.00  0.00    -0.014 A 
ATOM     15  C   UNK A   0       0.905   5.871  -6.536  0.00  0.00    +0.003 A 
ATOM     16  C   UNK A   0      -0.084   5.154  -7.211  0.00  0.00    +0.047 A 
ATOM     17  C   UNK A   0      -1.282   5.784  -7.563  0.00  0.00    +0.026 A 
ATOM     18  C   UNK A   0      -1.476   7.113  -7.235  0.00  0.00    +0.002 A 
ATOM     19  C   UNK A   0      -0.486   7.810  -6.558  0.00  0.00    +0.001 A 
ATOM     20  N   UNK A   0       0.348   3.845  -7.366  0.00  0.00    -0.360 N 
ATOM     21  H   UNK A   0      -0.185   3.092  -7.824  0.00  0.00    +0.165 HD
ATOM     22  C   UNK A   0       0.708   7.206  -6.182  0.00  0.00    +0.010 A 
ATOM     23  C   UNK A   0       1.615   3.707  -6.805  0.00  0.00    +0.087 A 
ENDBRANCH  13  14
ENDBRANCH   3  13
TORSDOF 6
