REMARK  Name = LIGAND
REMARK  6 active torsions:
REMARK  status: ('A' for Active; 'I' for Inactive)
REMARK    1  A    between atoms: CG_2  and  CB_4
REMARK    2  A    between atoms: CB_4  and  CA_5
REMARK    3  A    between atoms: CA_5  and  C_6
REMARK    4  A    between atoms: CA_5  and  N_9
REMARK    5  A    between atoms: C_10  and  C_12
REMARK    6  A    between atoms: C_12  and  C_13
REMARK                            x       y       z     vdW  Elec       q    Type
REMARK                         _______ _______ _______ _____ _____    ______ ____
ROOT
ATOM      1  N   ASP A   1      -1.761  -5.801  -4.442  0.00  0.00    -0.302 N 
ATOM      2  H   ASP A   1      -1.673  -6.821  -4.561  0.00  0.00    +0.150 HD
ATOM      3  C   UNK A   0      -0.604  -5.010  -4.532  0.00  0.00    +0.218 C 
ATOM      4  O   UNK A   0      -0.633  -3.809  -4.334  0.00  0.00    -0.275 OA
ENDROOT
BRANCH   1   5
ATOM      5  CA  ASP A   1      -3.090  -5.234  -4.184  0.00  0.00    +0.197 C 
BRANCH   5   6
ATOM      6  C   ASP A   1      -3.605  -5.909  -2.916  0.00  0.00    +0.376 C 
ATOM      7  OXT ASP A   1      -3.690  -7.174  -2.886  0.00  0.00    -0.244 OA
ATOM      8  O   ASP A   1      -4.025  -5.145  -1.891  0.00  0.00    -0.244 OA
ENDBRANCH   5   6
BRANCH   5   9
ATOM      9  CB  ASP A   1      -4.021  -5.513  -5.413  0.00  0.00    +0.159 C 
BRANCH   9  11
ATOM     10  OD1 ASP A   1      -4.804  -3.163  -5.521  0.00  0.00    -0.246 OA
ATOM     11  CG  ASP A   1      -5.143  -4.454  -5.427  0.00  0.00    +0.358 C 
ATOM     12  OD2 ASP A   1      -6.388  -4.844  -5.389  0.00  0.00    -0.246 OA
ENDBRANCH   9  11
ENDBRANCH   5   9
ENDBRANCH   1   5
BRANCH   3  13
ATOM     13  C   UNK A   0       0.702  -5.746  -4.814  0.00  0.00    +0.133 C 
BRANCH  13  14
ATOM     14  C   UNK A   0       1.879  -4.821  -4.495  0.00  0.00    -0.014 A 
ATOM     15  C   UNK A   0       2.650  -4.863  -3.312  0.00  0.00    +0.003 A 
ATOM     16  C   UNK A   0       3.600  -3.845  -3.414  0.00  0.00    +0.047 A 
ATOM     17  C   UNK A   0       4.514  -3.642  -2.376  0.00  0.00    +0.026 A 
ATOM     18  C   UNK A   0       4.468  -4.452  -1.256  0.00  0.00    +0.002 A 
ATOM     19  C   UNK A   0       3.514  -5.455  -1.168  0.00  0.00    +0.001 A 
ATOM     20  N   UNK A   0       3.390  -3.163  -4.603  0.00  0.00    -0.360 N 
ATOM     21  H   UNK A   0       3.942  -2.358  -4.934  0.00  0.00    +0.165 HD
ATOM     22  C   UNK A   0       2.582  -5.670  -2.177  0.00  0.00    +0.010 A 
ATOM     23  C   UNK A   0       2.317  -3.736  -5.282  0.00  0.00    +0.087 A 
ENDBRANCH  13  14
ENDBRANCH   3  13
TORSDOF 6
