REMARK  Name = LIGAND
REMARK  6 active torsions:
REMARK  status: ('A' for Active; 'I' for Inactive)
REMARK    1  A    between atoms: C_5  and  O_15
REMARK    2  A    between atoms: C_9  and  C_12
REMARK    3  A    between atoms: C_13  and  C_17
REMARK    4  A    between atoms: O_15  and  C_20
REMARK    5  A    between atoms: C_17  and  N_36
REMARK    6  A    between atoms: C_20  and  C_33
REMARK                            x       y       z     vdW  Elec       q    Type
REMARK                         _______ _______ _______ _____ _____    ______ ____
ROOT
ATOM      1  C   UNL     1      18.009  -8.689  15.113  0.00  0.00    +0.248 C 
ATOM      2  N   UNL     1      18.344  -7.348  15.313  0.00  0.00    -0.305 N 
ATOM      3  H   UNL     1      18.065  -6.893  16.194  0.00  0.00    +0.149 HD
ATOM      4  O   UNL     1      18.517  -9.352  14.187  0.00  0.00    -0.270 OA
ENDROOT
BRANCH   1  10
ATOM      5  C   UNL     1      15.749  -9.433  18.210  0.00  0.00    +0.084 A 
ATOM      6  C   UNL     1      15.090 -10.596  17.753  0.00  0.00    +0.127 A 
ATOM      7  F   UNL     1      14.188 -11.181  18.575  0.00  0.00    -0.205 F 
ATOM      8  C   UNL     1      15.376 -11.136  16.453  0.00  0.00    +0.039 A 
ATOM      9  C   UNL     1      16.332 -10.488  15.625  0.00  0.00    +0.019 A 
ATOM     10  C   UNL     1      17.016  -9.308  16.057  0.00  0.00    +0.078 A 
ATOM     11  C   UNL     1      16.709  -8.786  17.368  0.00  0.00    +0.136 A 
BRANCH  11  12
ATOM     12  O   UNL     1      17.410  -7.627  17.734  0.00  0.00    -0.480 OA
BRANCH  12  13
ATOM     13  C   UNL     1      16.903  -6.791  18.782  0.00  0.00    +0.353 C 
BRANCH  13  14
ATOM     14  C   UNL     1      15.699  -6.030  18.259  0.00  0.00    +0.393 C 
ATOM     15  O   UNL     1      14.948  -5.555  19.274  0.00  0.00    -0.243 OA
ATOM     16  O   UNL     1      15.322  -5.795  17.108  0.00  0.00    -0.243 OA
ENDBRANCH  13  14
ENDBRANCH  12  13
ENDBRANCH  11  12
ENDBRANCH   1  10
BRANCH   2  17
ATOM     17  C   UNL     1      19.065  -6.578  14.333  0.00  0.00    +0.167 C 
BRANCH  17  18
ATOM     18  C   UNL     1      18.182  -5.895  13.314  0.00  0.00    +0.097 A 
ATOM     19  S   UNL     1      16.505  -6.307  13.186  0.00  0.00    -0.068 S 
ATOM     20  C   UNL     1      16.295  -5.194  11.937  0.00  0.00    +0.077 A 
ATOM     21  C   UNL     1      15.137  -4.836  11.170  0.00  0.00    +0.142 A 
ATOM     22  C   UNL     1      15.233  -3.848  10.157  0.00  0.00    +0.081 A 
ATOM     23  C   UNL     1      16.489  -3.200   9.895  0.00  0.00    +0.163 A 
ATOM     24  C   UNL     1      17.663  -3.533  10.642  0.00  0.00    +0.185 A 
ATOM     25  F   UNL     1      18.822  -2.922  10.387  0.00  0.00    -0.200 F 
ATOM     26  F   UNL     1      16.559  -2.260   8.925  0.00  0.00    -0.202 F 
ATOM     27  F   UNL     1      13.947  -5.441  11.408  0.00  0.00    -0.204 F 
ATOM     28  C   UNL     1      17.564  -4.534  11.667  0.00  0.00    +0.119 A 
ATOM     29  N   UNL     1      18.619  -4.963  12.476  0.00  0.00    -0.239 NA
ENDBRANCH  17  18
ENDBRANCH   2  17
TORSDOF 6
