REMARK  Name = LIGAND
REMARK  6 active torsions:
REMARK  status: ('A' for Active; 'I' for Inactive)
REMARK    1  A    between atoms: C_5  and  O_15
REMARK    2  A    between atoms: C_9  and  C_12
REMARK    3  A    between atoms: C_13  and  C_17
REMARK    4  A    between atoms: O_15  and  C_20
REMARK    5  A    between atoms: C_17  and  N_36
REMARK    6  A    between atoms: C_20  and  C_33
REMARK                            x       y       z     vdW  Elec       q    Type
REMARK                         _______ _______ _______ _____ _____    ______ ____
ROOT
ATOM      1  C   UNL     1      -1.334   4.587  -3.626  0.00  0.00    +0.248 C 
ATOM      2  N   UNL     1      -0.620   4.310  -2.458  0.00  0.00    -0.305 N 
ATOM      3  H   UNL     1      -1.087   3.788  -1.703  0.00  0.00    +0.149 HD
ATOM      4  O   UNL     1      -0.759   4.999  -4.653  0.00  0.00    -0.270 OA
ENDROOT
BRANCH   1  10
ATOM      5  C   UNL     1      -5.170   4.998  -3.018  0.00  0.00    +0.084 A 
ATOM      6  C   UNL     1      -5.639   3.819  -3.639  0.00  0.00    +0.127 A 
ATOM      7  F   UNL     1      -6.973   3.588  -3.639  0.00  0.00    -0.205 F 
ATOM      8  C   UNL     1      -4.721   2.898  -4.248  0.00  0.00    +0.039 A 
ATOM      9  C   UNL     1      -3.329   3.182  -4.222  0.00  0.00    +0.019 A 
ATOM     10  C   UNL     1      -2.821   4.368  -3.603  0.00  0.00    +0.078 A 
ATOM     11  C   UNL     1      -3.766   5.277  -2.998  0.00  0.00    +0.136 A 
BRANCH  11  12
ATOM     12  O   UNL     1      -3.208   6.422  -2.409  0.00  0.00    -0.480 OA
BRANCH  12  13
ATOM     13  C   UNL     1      -4.065   7.475  -1.951  0.00  0.00    +0.353 C 
BRANCH  13  14
ATOM     14  C   UNL     1      -3.209   8.566  -1.334  0.00  0.00    +0.393 C 
ATOM     15  O   UNL     1      -1.976   8.105  -1.038  0.00  0.00    -0.243 OA
ATOM     16  O   UNL     1      -3.458   9.746  -1.073  0.00  0.00    -0.243 OA
ENDBRANCH  13  14
ENDBRANCH  12  13
ENDBRANCH  11  12
ENDBRANCH   1  10
BRANCH   2  17
ATOM     17  C   UNL     1       0.745   4.727  -2.270  0.00  0.00    +0.167 C 
BRANCH  17  18
ATOM     18  C   UNL     1       1.736   3.587  -2.212  0.00  0.00    +0.097 A 
ATOM     19  S   UNL     1       2.207   2.757  -3.657  0.00  0.00    -0.068 S 
ATOM     20  C   UNL     1       3.227   1.741  -2.778  0.00  0.00    +0.077 A 
ATOM     21  C   UNL     1       4.082   0.667  -3.192  0.00  0.00    +0.142 A 
ATOM     22  C   UNL     1       4.851  -0.040  -2.231  0.00  0.00    +0.081 A 
ATOM     23  C   UNL     1       4.778   0.318  -0.841  0.00  0.00    +0.163 A 
ATOM     24  C   UNL     1       3.935   1.385  -0.395  0.00  0.00    +0.185 A 
ATOM     25  F   UNL     1       3.878   1.705   0.900  0.00  0.00    -0.200 F 
ATOM     26  F   UNL     1       5.519  -0.368   0.058  0.00  0.00    -0.202 F 
ATOM     27  F   UNL     1       4.159   0.321  -4.500  0.00  0.00    -0.204 F 
ATOM     28  C   UNL     1       3.157   2.099  -1.369  0.00  0.00    +0.119 A 
ATOM     29  N   UNL     1       2.293   3.159  -1.086  0.00  0.00    -0.239 NA
ENDBRANCH  17  18
ENDBRANCH   2  17
TORSDOF 6
