REMARK  Name = LIGAND
REMARK  6 active torsions:
REMARK  status: ('A' for Active; 'I' for Inactive)
REMARK    1  A    between atoms: C_5  and  O_15
REMARK    2  A    between atoms: C_9  and  C_12
REMARK    3  A    between atoms: C_13  and  C_17
REMARK    4  A    between atoms: O_15  and  C_20
REMARK    5  A    between atoms: C_17  and  N_36
REMARK    6  A    between atoms: C_20  and  C_33
REMARK                            x       y       z     vdW  Elec       q    Type
REMARK                         _______ _______ _______ _____ _____    ______ ____
ROOT
ATOM      1  C   UNL     1       4.296   3.231   7.103  0.00  0.00    +0.248 C 
ATOM      2  N   UNL     1       5.137   2.531   7.970  0.00  0.00    -0.305 N 
ATOM      3  H   UNL     1       6.146   2.496   7.763  0.00  0.00    +0.149 HD
ATOM      4  O   UNL     1       3.123   3.507   7.421  0.00  0.00    -0.270 OA
ENDROOT
BRANCH   1  10
ATOM      5  C   UNL     1       6.316   5.036   4.289  0.00  0.00    +0.084 A 
ATOM      6  C   UNL     1       5.845   4.327   3.162  0.00  0.00    +0.127 A 
ATOM      7  F   UNL     1       6.328   4.671   1.946  0.00  0.00    -0.205 F 
ATOM      8  C   UNL     1       4.880   3.273   3.311  0.00  0.00    +0.039 A 
ATOM      9  C   UNL     1       4.400   2.948   4.609  0.00  0.00    +0.019 A 
ATOM     10  C   UNL     1       4.858   3.646   5.771  0.00  0.00    +0.078 A 
ATOM     11  C   UNL     1       5.829   4.700   5.592  0.00  0.00    +0.136 A 
BRANCH  11  12
ATOM     12  O   UNL     1       6.240   5.345   6.768  0.00  0.00    -0.480 OA
BRANCH  12  13
ATOM     13  C   UNL     1       5.485   6.455   7.271  0.00  0.00    +0.353 C 
BRANCH  13  14
ATOM     14  C   UNL     1       6.416   7.362   8.054  0.00  0.00    +0.393 C 
ATOM     15  O   UNL     1       7.192   6.649   8.896  0.00  0.00    -0.243 OA
ATOM     16  O   UNL     1       6.560   8.587   8.040  0.00  0.00    -0.243 OA
ENDBRANCH  13  14
ENDBRANCH  12  13
ENDBRANCH  11  12
ENDBRANCH   1  10
BRANCH   2  17
ATOM     17  C   UNL     1       4.647   1.856   9.144  0.00  0.00    +0.167 C 
BRANCH  17  18
ATOM     18  C   UNL     1       4.080   0.482   8.873  0.00  0.00    +0.097 A 
ATOM     19  S   UNL     1       5.075  -0.763   8.197  0.00  0.00    -0.068 S 
ATOM     20  C   UNL     1       3.787  -1.850   8.221  0.00  0.00    +0.077 A 
ATOM     21  C   UNL     1       3.696  -3.223   7.815  0.00  0.00    +0.142 A 
ATOM     22  C   UNL     1       2.468  -3.922   7.944  0.00  0.00    +0.081 A 
ATOM     23  C   UNL     1       1.312  -3.261   8.483  0.00  0.00    +0.163 A 
ATOM     24  C   UNL     1       1.368  -1.893   8.897  0.00  0.00    +0.185 A 
ATOM     25  F   UNL     1       0.285  -1.292   9.396  0.00  0.00    -0.200 F 
ATOM     26  F   UNL     1       0.151  -3.946   8.598  0.00  0.00    -0.202 F 
ATOM     27  F   UNL     1       4.780  -3.857   7.305  0.00  0.00    -0.204 F 
ATOM     28  C   UNL     1       2.612  -1.186   8.766  0.00  0.00    +0.119 A 
ATOM     29  N   UNL     1       2.820   0.147   9.126  0.00  0.00    -0.239 NA
ENDBRANCH  17  18
ENDBRANCH   2  17
TORSDOF 6
