REMARK  Name = LIGAND
REMARK  12 active torsions:
REMARK  status: ('A' for Active; 'I' for Inactive)
REMARK    1  A    between atoms: C_7  and  C_12
REMARK    2  A    between atoms: C_8  and  C_26
REMARK    3  A    between atoms: N_9  and  C_27
REMARK    4  A    between atoms: O_19  and  C_22
REMARK    5  A    between atoms: C_20  and  C_21
REMARK    6  A    between atoms: C_21  and  C_22
REMARK    7  A    between atoms: C_22  and  C_23
REMARK    8  A    between atoms: C_23  and  C_24
REMARK    9  A    between atoms: C_24  and  C_25
REMARK   10  A    between atoms: C_24  and  O_30
REMARK   11  A    between atoms: C_27  and  C_28
REMARK   12  A    between atoms: C_27  and  C_29
REMARK                            x       y       z     vdW  Elec       q    Type
REMARK                         _______ _______ _______ _____ _____    ______ ____
ROOT
ATOM      1  C   UNL     1      -4.143   5.704  -0.449  0.00  0.00    +0.008 A 
ATOM      2  C   UNL     1      -3.547   6.265   0.818  0.00  0.00    +0.015 A 
ATOM      3  C   UNL     1      -4.470   5.891   1.729  0.00  0.00    +0.051 A 
ATOM      4  N   UNL     1      -5.574   5.152   1.118  0.00  0.00    -0.337 N 
ATOM      5  C   UNL     1      -3.650   5.760  -1.765  0.00  0.00    +0.010 A 
ATOM      6  C   UNL     1      -4.388   5.163  -2.799  0.00  0.00    +0.001 A 
ATOM      7  C   UNL     1      -5.604   4.521  -2.516  0.00  0.00    +0.002 A 
ATOM      8  C   UNL     1      -6.082   4.473  -1.186  0.00  0.00    +0.026 A 
ATOM      9  C   UNL     1      -5.334   5.074  -0.151  0.00  0.00    +0.050 A 
ENDROOT
BRANCH   2  10
ATOM     10  C   UNL     1      -2.247   7.038   0.980  0.00  0.00    -0.015 A 
ATOM     11  C   UNL     1      -1.143   6.424   1.591  0.00  0.00    +0.011 A 
ATOM     12  C   UNL     1       0.051   7.129   1.760  0.00  0.00    +0.039 A 
ATOM     13  C   UNL     1       0.141   8.453   1.319  0.00  0.00    +0.123 A 
ATOM     14  F   UNL     1       1.304   9.149   1.487  0.00  0.00    -0.205 F 
ATOM     15  C   UNL     1      -0.955   9.068   0.710  0.00  0.00    +0.039 A 
ATOM     16  C   UNL     1      -2.151   8.364   0.540  0.00  0.00    +0.011 A 
ENDBRANCH   2  10
BRANCH   4  17
ATOM     17  C   UNL     1      -6.790   4.655   1.882  0.00  0.00    +0.082 C 
ATOM     18  C   UNL     1      -7.107   3.190   1.523  0.00  0.00    +0.030 C 
ATOM     19  C   UNL     1      -8.018   5.549   1.679  0.00  0.00    +0.030 C 
ENDBRANCH   4  17
BRANCH   3  20
ATOM     20  C   UNL     1      -4.320   6.197   3.054  0.00  0.00    +0.025 C 
ATOM     21  C   UNL     1      -3.922   5.460   4.106  0.00  0.00    +0.006 C 
BRANCH  21  22
ATOM     22  C   UNL     1      -3.801   5.955   5.529  0.00  0.00    +0.140 C 
BRANCH  22  23
ATOM     23  O   UNL     1      -2.448   6.011   5.950  0.00  0.00    -0.388 OA
ATOM     24  H   UNL     1      -2.409   6.023   6.979  0.00  0.00    +0.210 HD
ENDBRANCH  22  23
BRANCH  22  25
ATOM     25  C   UNL     1      -4.365   7.373   5.660  0.00  0.00    +0.067 C 
BRANCH  25  26
ATOM     26  C   UNL     1      -5.440   7.500   6.748  0.00  0.00    +0.128 C 
BRANCH  26  27
ATOM     27  O   UNL     1      -5.257   8.748   7.432  0.00  0.00    -0.391 OA
ATOM     28  H   UNL     1      -5.746   8.719   8.338  0.00  0.00    +0.210 HD
ENDBRANCH  26  27
BRANCH  26  29
ATOM     29  C   UNL     1      -6.849   7.480   6.132  0.00  0.00    +0.156 C 
BRANCH  29  30
ATOM     30  C   UNL     1      -7.921   6.883   7.035  0.00  0.00    +0.358 C 
ATOM     31  O   UNL     1      -7.417   6.005   7.948  0.00  0.00    -0.246 OA
ATOM     32  O   UNL     1      -9.111   7.159   6.937  0.00  0.00    -0.246 OA
ENDBRANCH  29  30
ENDBRANCH  26  29
ENDBRANCH  25  26
ENDBRANCH  22  25
ENDBRANCH  21  22
ENDBRANCH   3  20
TORSDOF 10
