REMARK  Name = LIGAND
REMARK  12 active torsions:
REMARK  status: ('A' for Active; 'I' for Inactive)
REMARK    1  A    between atoms: C_7  and  C_12
REMARK    2  A    between atoms: C_8  and  C_26
REMARK    3  A    between atoms: N_9  and  C_27
REMARK    4  A    between atoms: O_19  and  C_22
REMARK    5  A    between atoms: C_20  and  C_21
REMARK    6  A    between atoms: C_21  and  C_22
REMARK    7  A    between atoms: C_22  and  C_23
REMARK    8  A    between atoms: C_23  and  C_24
REMARK    9  A    between atoms: C_24  and  C_25
REMARK   10  A    between atoms: C_24  and  O_30
REMARK   11  A    between atoms: C_27  and  C_28
REMARK   12  A    between atoms: C_27  and  C_29
REMARK                            x       y       z     vdW  Elec       q    Type
REMARK                         _______ _______ _______ _____ _____    ______ ____
ROOT
ATOM      1  C   UNL     1       0.920  -4.456  -5.772  0.00  0.00    +0.008 A 
ATOM      2  C   UNL     1      -0.302  -5.332  -5.888  0.00  0.00    +0.015 A 
ATOM      3  C   UNL     1      -1.162  -4.691  -5.070  0.00  0.00    +0.051 A 
ATOM      4  N   UNL     1      -0.561  -3.501  -4.469  0.00  0.00    -0.337 N 
ATOM      5  C   UNL     1       2.175  -4.590  -6.395  0.00  0.00    +0.010 A 
ATOM      6  C   UNL     1       3.176  -3.644  -6.130  0.00  0.00    +0.001 A 
ATOM      7  C   UNL     1       2.922  -2.578  -5.252  0.00  0.00    +0.002 A 
ATOM      8  C   UNL     1       1.655  -2.458  -4.638  0.00  0.00    +0.026 A 
ATOM      9  C   UNL     1       0.651  -3.413  -4.910  0.00  0.00    +0.050 A 
ENDROOT
BRANCH   2  10
ATOM     10  C   UNL     1      -0.475  -6.593  -6.721  0.00  0.00    -0.015 A 
ATOM     11  C   UNL     1      -1.317  -6.577  -7.844  0.00  0.00    +0.011 A 
ATOM     12  C   UNL     1      -1.496  -7.733  -8.607  0.00  0.00    +0.039 A 
ATOM     13  C   UNL     1      -0.834  -8.911  -8.244  0.00  0.00    +0.123 A 
ATOM     14  F   UNL     1      -1.011 -10.046  -8.983  0.00  0.00    -0.205 F 
ATOM     15  C   UNL     1       0.004  -8.932  -7.127  0.00  0.00    +0.039 A 
ATOM     16  C   UNL     1       0.185  -7.775  -6.363  0.00  0.00    +0.011 A 
ENDBRANCH   2  10
BRANCH   4  17
ATOM     17  C   UNL     1      -1.267  -2.611  -3.458  0.00  0.00    +0.082 C 
ATOM     18  C   UNL     1      -1.136  -1.124  -3.846  0.00  0.00    +0.030 C 
ATOM     19  C   UNL     1      -0.782  -2.850  -2.025  0.00  0.00    +0.030 C 
ENDBRANCH   4  17
BRANCH   3  20
ATOM     20  C   UNL     1      -2.435  -5.155  -4.879  0.00  0.00    +0.025 C 
ATOM     21  C   UNL     1      -3.630  -4.541  -4.928  0.00  0.00    +0.006 C 
BRANCH  21  22
ATOM     22  C   UNL     1      -4.968  -5.206  -4.696  0.00  0.00    +0.140 C 
BRANCH  22  23
ATOM     23  O   UNL     1      -5.186  -6.274  -5.601  0.00  0.00    -0.388 OA
ATOM     24  H   UNL     1      -5.372  -5.897  -6.540  0.00  0.00    +0.210 HD
ENDBRANCH  22  23
BRANCH  22  25
ATOM     25  C   UNL     1      -5.042  -5.798  -3.285  0.00  0.00    +0.067 C 
BRANCH  25  26
ATOM     26  C   UNL     1      -6.431  -6.346  -2.929  0.00  0.00    +0.128 C 
BRANCH  26  27
ATOM     27  O   UNL     1      -6.526  -7.697  -3.401  0.00  0.00    -0.391 OA
ATOM     28  H   UNL     1      -6.845  -7.698  -4.381  0.00  0.00    +0.210 HD
ENDBRANCH  26  27
BRANCH  26  29
ATOM     29  C   UNL     1      -6.648  -6.341  -1.406  0.00  0.00    +0.156 C 
BRANCH  29  30
ATOM     30  C   UNL     1      -8.083  -6.616  -0.976  0.00  0.00    +0.358 C 
ATOM     31  O   UNL     1      -8.400  -6.035   0.216  0.00  0.00    -0.246 OA
ATOM     32  O   UNL     1      -8.861  -7.299  -1.632  0.00  0.00    -0.246 OA
ENDBRANCH  29  30
ENDBRANCH  26  29
ENDBRANCH  25  26
ENDBRANCH  22  25
ENDBRANCH  21  22
ENDBRANCH   3  20
TORSDOF 10
