REMARK  Name = LIGAND
REMARK  12 active torsions:
REMARK  status: ('A' for Active; 'I' for Inactive)
REMARK    1  A    between atoms: C_7  and  C_12
REMARK    2  A    between atoms: C_8  and  C_26
REMARK    3  A    between atoms: N_9  and  C_27
REMARK    4  A    between atoms: O_19  and  C_22
REMARK    5  A    between atoms: C_20  and  C_21
REMARK    6  A    between atoms: C_21  and  C_22
REMARK    7  A    between atoms: C_22  and  C_23
REMARK    8  A    between atoms: C_23  and  C_24
REMARK    9  A    between atoms: C_24  and  C_25
REMARK   10  A    between atoms: C_24  and  O_30
REMARK   11  A    between atoms: C_27  and  C_28
REMARK   12  A    between atoms: C_27  and  C_29
REMARK                            x       y       z     vdW  Elec       q    Type
REMARK                         _______ _______ _______ _____ _____    ______ ____
ROOT
ATOM      1  C   UNL     1      -0.710  -5.518  -2.941  0.00  0.00    +0.008 A 
ATOM      2  C   UNL     1      -1.519  -6.684  -3.452  0.00  0.00    +0.015 A 
ATOM      3  C   UNL     1      -1.848  -7.301  -2.297  0.00  0.00    +0.051 A 
ATOM      4  N   UNL     1      -1.305  -6.604  -1.131  0.00  0.00    -0.337 N 
ATOM      5  C   UNL     1      -0.078  -4.488  -3.662  0.00  0.00    +0.010 A 
ATOM      6  C   UNL     1       0.632  -3.500  -2.964  0.00  0.00    +0.001 A 
ATOM      7  C   UNL     1       0.708  -3.544  -1.563  0.00  0.00    +0.002 A 
ATOM      8  C   UNL     1       0.064  -4.585  -0.856  0.00  0.00    +0.026 A 
ATOM      9  C   UNL     1      -0.650  -5.576  -1.564  0.00  0.00    +0.050 A 
ENDROOT
BRANCH   2  10
ATOM     10  C   UNL     1      -1.852  -7.033  -4.895  0.00  0.00    -0.015 A 
ATOM     11  C   UNL     1      -0.827  -7.094  -5.851  0.00  0.00    +0.011 A 
ATOM     12  C   UNL     1      -1.122  -7.398  -7.182  0.00  0.00    +0.039 A 
ATOM     13  C   UNL     1      -2.448  -7.639  -7.559  0.00  0.00    +0.123 A 
ATOM     14  F   UNL     1      -2.743  -7.930  -8.860  0.00  0.00    -0.205 F 
ATOM     15  C   UNL     1      -3.471  -7.579  -6.610  0.00  0.00    +0.039 A 
ATOM     16  C   UNL     1      -3.177  -7.275  -5.278  0.00  0.00    +0.011 A 
ENDBRANCH   2  10
BRANCH   4  17
ATOM     17  C   UNL     1      -1.459  -7.095   0.299  0.00  0.00    +0.082 C 
ATOM     18  C   UNL     1      -2.082  -6.003   1.193  0.00  0.00    +0.030 C 
ATOM     19  C   UNL     1      -0.141  -7.604   0.890  0.00  0.00    +0.030 C 
ENDBRANCH   4  17
BRANCH   3  20
ATOM     20  C   UNL     1      -2.610  -8.436  -2.295  0.00  0.00    +0.025 C 
ATOM     21  C   UNL     1      -3.883  -8.662  -1.923  0.00  0.00    +0.006 C 
BRANCH  21  22
ATOM     22  C   UNL     1      -4.592  -9.996  -1.988  0.00  0.00    +0.140 C 
BRANCH  22  23
ATOM     23  O   UNL     1      -3.982 -10.955  -1.142  0.00  0.00    -0.388 OA
ATOM     24  H   UNL     1      -3.658 -11.754  -1.705  0.00  0.00    +0.210 HD
ENDBRANCH  22  23
BRANCH  22  25
ATOM     25  C   UNL     1      -6.046  -9.859  -1.527  0.00  0.00    +0.067 C 
BRANCH  25  26
ATOM     26  C   UNL     1      -6.547  -8.408  -1.520  0.00  0.00    +0.128 C 
BRANCH  26  27
ATOM     27  O   UNL     1      -7.909  -8.389  -1.971  0.00  0.00    -0.391 OA
ATOM     28  H   UNL     1      -8.541  -8.392  -1.157  0.00  0.00    +0.210 HD
ENDBRANCH  26  27
BRANCH  26  29
ATOM     29  C   UNL     1      -6.491  -7.815  -0.102  0.00  0.00    +0.156 C 
BRANCH  29  30
ATOM     30  C   UNL     1      -6.398  -6.295  -0.061  0.00  0.00    +0.358 C 
ATOM     31  O   UNL     1      -5.119  -5.845   0.080  0.00  0.00    -0.246 OA
ATOM     32  O   UNL     1      -7.376  -5.560  -0.136  0.00  0.00    -0.246 OA
ENDBRANCH  29  30
ENDBRANCH  26  29
ENDBRANCH  25  26
ENDBRANCH  22  25
ENDBRANCH  21  22
ENDBRANCH   3  20
TORSDOF 10
