REMARK  Name = LIGAND
REMARK  8 active torsions:
REMARK  status: ('A' for Active; 'I' for Inactive)
REMARK    1  A    between atoms: N_1  and  C_6
REMARK    2  A    between atoms: C_2  and  C_16
REMARK    3  A    between atoms: C_4  and  C_36
REMARK    4  A    between atoms: C_5  and  C_37
REMARK    5  A    between atoms: C_6  and  C_9
REMARK    6  A    between atoms: C_9  and  C_12
REMARK    7  A    between atoms: N_24  and  C_32
REMARK    8  A    between atoms: N_55  and  C_57
REMARK                            x       y       z     vdW  Elec       q    Type
REMARK                         _______ _______ _______ _____ _____    ______ ____
ROOT
ATOM      1  N   UNL     1      -4.951   3.143  -6.000  0.00  0.00    -0.326 N 
ATOM      2  C   UNL     1      -4.829   1.614  -6.013  0.00  0.00    +0.095 A 
ATOM      3  C   UNL     1      -3.824   1.261  -4.969  0.00  0.00    +0.099 A 
ATOM      4  N   UNL     1      -3.404   2.561  -4.423  0.00  0.00    -0.231 NA
ATOM      5  C   UNL     1      -4.082   3.584  -5.056  0.00  0.00    +0.114 A 
ENDROOT
BRANCH   2   6
ATOM      6  C   UNL     1      -5.825   0.911  -6.926  0.00  0.00    +0.094 A 
ATOM      7  N   UNL     1      -7.083   0.685  -6.565  0.00  0.00    -0.213 NA
ATOM      8  C   UNL     1      -7.916   0.110  -7.432  0.00  0.00    +0.216 A 
ATOM      9  N   UNL     1      -9.175  -0.069  -6.967  0.00  0.00    -0.311 N 
ATOM     10  H   UNL     1      -9.906   0.606  -7.234  0.00  0.00    +0.149 HD
ATOM     11  N   UNL     1      -7.596  -0.277  -8.675  0.00  0.00    -0.223 NA
ATOM     12  C   UNL     1      -6.327  -0.051  -9.073  0.00  0.00    +0.116 A 
ATOM     13  C   UNL     1      -5.375   0.566  -8.229  0.00  0.00    +0.050 A 
BRANCH   9  14
ATOM     14  C   UNL     1      -9.526  -1.180  -6.108  0.00  0.00    +0.073 C 
ATOM     15  C   UNL     1     -10.730  -1.005  -5.315  0.00  0.00    +0.024 C 
ATOM     16  C   UNL     1     -10.892  -1.212  -6.788  0.00  0.00    +0.024 C 
ENDBRANCH   9  14
ENDBRANCH   2   6
BRANCH   3  17
ATOM     17  C   UNL     1      -3.247  -0.037  -4.514  0.00  0.00    +0.004 A 
ATOM     18  C   UNL     1      -1.854  -0.159  -4.304  0.00  0.00    +0.011 A 
ATOM     19  C   UNL     1      -1.308  -1.412  -3.838  0.00  0.00    +0.022 A 
ATOM     20  C   UNL     1      -2.184  -2.514  -3.575  0.00  0.00    +0.059 A 
ATOM     21 CL   UNL     1      -1.486  -3.985  -2.993  0.00  0.00    -0.082 Cl
ATOM     22  C   UNL     1      -3.576  -2.369  -3.811  0.00  0.00    +0.060 A 
ATOM     23 CL   UNL     1      -4.723  -3.614  -3.549  0.00  0.00    -0.082 Cl
ATOM     24  C   UNL     1      -4.083  -1.149  -4.256  0.00  0.00    +0.031 A 
ENDBRANCH   3  17
BRANCH   5  25
ATOM     25  C   UNL     1      -3.771   4.763  -4.613  0.00  0.00    +0.052 C 
ATOM     26  C   UNL     1      -2.238   5.025  -4.509  0.00  0.00    -0.008 C 
ATOM     27  C   UNL     1      -1.907   6.472  -4.006  0.00  0.00    -0.079 C 
ATOM     28  N   UNL     1      -2.570   6.801  -2.728  0.00  0.00    +0.378 N 
ATOM     29  H   UNL     1      -2.220   6.166  -2.025  0.00  0.00    -0.082 HD
ATOM     30  C   UNL     1      -2.223   8.180  -2.299  0.00  0.00    -0.096 C 
ATOM     31  C   UNL     1      -4.057   6.629  -2.796  0.00  0.00    -0.079 C 
ATOM     32  C   UNL     1      -4.464   5.189  -3.272  0.00  0.00    -0.008 C 
ENDBRANCH   5  25
BRANCH   1  33
ATOM     33  C   UNL     1      -5.787   4.063  -6.806  0.00  0.00    +0.123 C 
BRANCH  33  34
ATOM     34  C   UNL     1      -5.142   4.450  -8.132  0.00  0.00    +0.018 C 
ATOM     35  C   UNL     1      -3.753   3.852  -8.338  0.00  0.00    +0.005 C 
ENDBRANCH  33  34
ENDBRANCH   1  33
TORSDOF 6
