REMARK  Name = LIGAND
REMARK  8 active torsions:
REMARK  status: ('A' for Active; 'I' for Inactive)
REMARK    1  A    between atoms: N_1  and  C_6
REMARK    2  A    between atoms: C_2  and  C_16
REMARK    3  A    between atoms: C_4  and  C_36
REMARK    4  A    between atoms: C_5  and  C_37
REMARK    5  A    between atoms: C_6  and  C_9
REMARK    6  A    between atoms: C_9  and  C_12
REMARK    7  A    between atoms: N_24  and  C_32
REMARK    8  A    between atoms: N_55  and  C_57
REMARK                            x       y       z     vdW  Elec       q    Type
REMARK                         _______ _______ _______ _____ _____    ______ ____
ROOT
ATOM      1  N   UNL     1      -4.219  -0.195  -2.867  0.00  0.00    -0.326 N 
ATOM      2  C   UNL     1      -3.270  -1.090  -3.673  0.00  0.00    +0.095 A 
ATOM      3  C   UNL     1      -2.707  -2.083  -2.712  0.00  0.00    +0.099 A 
ATOM      4  N   UNL     1      -3.319  -1.721  -1.424  0.00  0.00    -0.231 NA
ATOM      5  C   UNL     1      -4.164  -0.640  -1.587  0.00  0.00    +0.114 A 
ENDROOT
BRANCH   2   6
ATOM      6  C   UNL     1      -3.285  -0.833  -5.174  0.00  0.00    +0.094 A 
ATOM      7  N   UNL     1      -2.633   0.184  -5.727  0.00  0.00    -0.213 NA
ATOM      8  C   UNL     1      -2.646   0.322  -7.052  0.00  0.00    +0.216 A 
ATOM      9  N   UNL     1      -1.945   1.385  -7.514  0.00  0.00    -0.311 N 
ATOM     10  H   UNL     1      -0.994   1.234  -7.880  0.00  0.00    +0.149 HD
ATOM     11  N   UNL     1      -3.277  -0.492  -7.910  0.00  0.00    -0.223 NA
ATOM     12  C   UNL     1      -3.941  -1.538  -7.379  0.00  0.00    +0.116 A 
ATOM     13  C   UNL     1      -3.972  -1.776  -5.985  0.00  0.00    +0.050 A 
BRANCH   9  14
ATOM     14  C   UNL     1      -2.491   2.726  -7.509  0.00  0.00    +0.073 C 
ATOM     15  C   UNL     1      -2.623   3.345  -6.202  0.00  0.00    +0.024 C 
ATOM     16  C   UNL     1      -1.244   3.179  -6.756  0.00  0.00    +0.024 C 
ENDBRANCH   9  14
ENDBRANCH   2   6
BRANCH   3  17
ATOM     17  C   UNL     1      -1.719  -3.191  -2.861  0.00  0.00    +0.004 A 
ATOM     18  C   UNL     1      -2.071  -4.509  -2.490  0.00  0.00    +0.011 A 
ATOM     19  C   UNL     1      -1.117  -5.579  -2.663  0.00  0.00    +0.022 A 
ATOM     20  C   UNL     1       0.169  -5.300  -3.225  0.00  0.00    +0.059 A 
ATOM     21 CL   UNL     1       1.267  -6.619  -3.437  0.00  0.00    -0.082 Cl
ATOM     22  C   UNL     1       0.502  -3.964  -3.573  0.00  0.00    +0.060 A 
ATOM     23 CL   UNL     1       2.010  -3.499  -4.239  0.00  0.00    -0.082 Cl
ATOM     24  C   UNL     1      -0.436  -2.947  -3.403  0.00  0.00    +0.031 A 
ENDBRANCH   3  17
BRANCH   5  25
ATOM     25  C   UNL     1      -4.752  -0.275  -0.490  0.00  0.00    +0.052 C 
ATOM     26  C   UNL     1      -3.833  -0.297   0.769  0.00  0.00    -0.008 C 
ATOM     27  C   UNL     1      -4.574   0.186   2.064  0.00  0.00    -0.079 C 
ATOM     28  N   UNL     1      -5.820  -0.560   2.326  0.00  0.00    +0.378 N 
ATOM     29  H   UNL     1      -5.574  -1.529   2.481  0.00  0.00    -0.082 HD
ATOM     30  C   UNL     1      -6.478  -0.062   3.560  0.00  0.00    -0.096 C 
ATOM     31  C   UNL     1      -6.768  -0.513   1.167  0.00  0.00    -0.079 C 
ATOM     32  C   UNL     1      -6.100  -1.009  -0.165  0.00  0.00    -0.008 C 
ENDBRANCH   5  25
BRANCH   1  33
ATOM     33  C   UNL     1      -5.060   0.954  -3.275  0.00  0.00    +0.123 C 
BRANCH  33  34
ATOM     34  C   UNL     1      -4.251   2.115  -3.843  0.00  0.00    +0.018 C 
ATOM     35  C   UNL     1      -4.755   3.487  -3.403  0.00  0.00    +0.005 C 
ENDBRANCH  33  34
ENDBRANCH   1  33
TORSDOF 6
