REMARK  Name = LIGAND
REMARK  8 active torsions:
REMARK  status: ('A' for Active; 'I' for Inactive)
REMARK    1  A    between atoms: N_1  and  C_6
REMARK    2  A    between atoms: C_2  and  C_16
REMARK    3  A    between atoms: C_4  and  C_36
REMARK    4  A    between atoms: C_5  and  C_37
REMARK    5  A    between atoms: C_6  and  C_9
REMARK    6  A    between atoms: C_9  and  C_12
REMARK    7  A    between atoms: N_24  and  C_32
REMARK    8  A    between atoms: N_55  and  C_57
REMARK                            x       y       z     vdW  Elec       q    Type
REMARK                         _______ _______ _______ _____ _____    ______ ____
ROOT
ATOM      1  N   UNL     1      -0.422   5.026  -6.284  0.00  0.00    -0.326 N 
ATOM      2  C   UNL     1      -1.607   4.881  -5.323  0.00  0.00    +0.095 A 
ATOM      3  C   UNL     1      -2.448   6.101  -5.497  0.00  0.00    +0.099 A 
ATOM      4  N   UNL     1      -1.726   6.889  -6.509  0.00  0.00    -0.231 NA
ATOM      5  C   UNL     1      -0.586   6.220  -6.909  0.00  0.00    +0.114 A 
ENDROOT
BRANCH   2   6
ATOM      6  C   UNL     1      -1.678   3.535  -4.611  0.00  0.00    +0.094 A 
ATOM      7  N   UNL     1      -1.591   2.381  -5.262  0.00  0.00    -0.213 NA
ATOM      8  C   UNL     1      -1.609   1.242  -4.572  0.00  0.00    +0.216 A 
ATOM      9  N   UNL     1      -1.506   0.124  -5.331  0.00  0.00    -0.311 N 
ATOM     10  H   UNL     1      -0.590  -0.338  -5.416  0.00  0.00    +0.149 HD
ATOM     11  N   UNL     1      -1.713   1.143  -3.240  0.00  0.00    -0.223 NA
ATOM     12  C   UNL     1      -1.795   2.299  -2.550  0.00  0.00    +0.116 A 
ATOM     13  C   UNL     1      -1.768   3.559  -3.193  0.00  0.00    +0.050 A 
BRANCH   9  14
ATOM     14  C   UNL     1      -2.645  -0.441  -6.025  0.00  0.00    +0.073 C 
ATOM     15  C   UNL     1      -2.344  -1.515  -6.954  0.00  0.00    +0.024 C 
ATOM     16  C   UNL     1      -2.230  -1.809  -5.492  0.00  0.00    +0.024 C 
ENDBRANCH   9  14
ENDBRANCH   2   6
BRANCH   3  17
ATOM     17  C   UNL     1      -3.703   6.571  -4.843  0.00  0.00    +0.004 A 
ATOM     18  C   UNL     1      -3.891   6.386  -3.454  0.00  0.00    +0.011 A 
ATOM     19  C   UNL     1      -5.098   6.868  -2.826  0.00  0.00    +0.022 A 
ATOM     20  C   UNL     1      -6.086   7.545  -3.610  0.00  0.00    +0.059 A 
ATOM     21 CL   UNL     1      -7.501   8.128  -2.807  0.00  0.00    -0.082 Cl
ATOM     22  C   UNL     1      -5.879   7.702  -5.006  0.00  0.00    +0.060 A 
ATOM     23 CL   UNL     1      -6.989   8.479  -6.055  0.00  0.00    -0.082 Cl
ATOM     24  C   UNL     1      -4.704   7.233  -5.593  0.00  0.00    +0.031 A 
ENDBRANCH   3  17
BRANCH   5  25
ATOM     25  C   UNL     1       0.094   6.852  -7.814  0.00  0.00    +0.052 C 
ATOM     26  C   UNL     1      -0.266   8.363  -7.947  0.00  0.00    -0.008 C 
ATOM     27  C   UNL     1       0.604   9.097  -9.025  0.00  0.00    -0.079 C 
ATOM     28  N   UNL     1       0.555   8.440 -10.347  0.00  0.00    +0.378 N 
ATOM     29  H   UNL     1      -0.400   8.477 -10.676  0.00  0.00    -0.082 HD
ATOM     30  C   UNL     1       1.395   9.175 -11.327  0.00  0.00    -0.096 C 
ATOM     31  C   UNL     1       0.958   6.999 -10.284  0.00  0.00    -0.079 C 
ATOM     32  C   UNL     1       0.108   6.193  -9.237  0.00  0.00    -0.008 C 
ENDBRANCH   5  25
BRANCH   1  33
ATOM     33  C   UNL     1       0.731   4.137  -6.556  0.00  0.00    +0.123 C 
BRANCH  33  34
ATOM     34  C   UNL     1       1.835   4.254  -5.511  0.00  0.00    +0.018 C 
ATOM     35  C   UNL     1       1.979   3.017  -4.628  0.00  0.00    +0.005 C 
ENDBRANCH  33  34
ENDBRANCH   1  33
TORSDOF 6
