REMARK  Name = LIGAND
REMARK  12 active torsions:
REMARK  status: ('A' for Active; 'I' for Inactive)
REMARK    1  A    between atoms: C_1  and  C_2
REMARK    2  A    between atoms: C_1  and  C_7
REMARK    3  A    between atoms: C_7  and  C_19
REMARK    4  A    between atoms: N_14  and  C_29
REMARK    5  A    between atoms: C_23  and  O_36
REMARK    6  A    between atoms: O_36  and  C_39
REMARK    7  A    between atoms: C_40  and  C_45
REMARK    8  A    between atoms: C_46  and  C_50
REMARK    9  A    between atoms: C_50  and  C_51
REMARK   10  A    between atoms: C_50  and  C_52
REMARK   11  A    between atoms: C_50  and  N_56
REMARK   12  A    between atoms: N_60  and  C_65
REMARK                            x       y       z     vdW  Elec       q    Type
REMARK                         _______ _______ _______ _____ _____    ______ ____
ROOT
ATOM      1  C   UNL     1      -1.597   6.191   7.022  0.00  0.00    +0.146 A 
ATOM      2  C   UNL     1      -1.975   7.531   7.321  0.00  0.00    +0.050 A 
ATOM      3  C   UNL     1      -1.242   8.328   8.256  0.00  0.00    -0.050 A 
ATOM      4  C   UNL     1      -0.107   7.724   8.898  0.00  0.00    +0.004 A 
ATOM      5  C   UNL     1       0.277   6.388   8.611  0.00  0.00    +0.023 A 
ATOM      6  C   UNL     1      -0.454   5.615   7.674  0.00  0.00    +0.094 A 
ENDROOT
BRANCH   3   7
ATOM      7  C   UNL     1      -1.647   9.791   8.584  0.00  0.00    -0.005 C 
ATOM      8  C   UNL     1      -1.765  10.641   7.276  0.00  0.00    +0.001 C 
BRANCH   7   9
ATOM      9  C   UNL     1      -2.963   9.901   9.354  0.00  0.00    +0.030 A 
ATOM     10  C   UNL     1      -4.122  10.632   9.086  0.00  0.00    +0.132 A 
ATOM     11  N   UNL     1      -5.101  10.455  10.023  0.00  0.00    -0.244 NA
ATOM     12  C   UNL     1      -4.529   9.613  10.857  0.00  0.00    +0.199 A 
ATOM     13  N   UNL     1      -3.266   9.243  10.533  0.00  0.00    -0.338 N 
ATOM     14  C   UNL     1      -2.511   8.320  11.367  0.00  0.00    +0.150 C 
ENDBRANCH   7   9
BRANCH   7  15
ATOM     15  N   UNL     1      -0.619  10.392   9.439  0.00  0.00    +0.388 N 
ATOM     16  H   UNL     1       0.293   9.956   9.240  0.00  0.00    -0.088 HD
ATOM     17  H   UNL     1      -0.862  10.239  10.429  0.00  0.00    -0.088 HD
ATOM     18  H   UNL     1      -0.564  11.403   9.253  0.00  0.00    -0.088 HD
ENDBRANCH   7  15
ENDBRANCH   3   7
BRANCH   6  19
ATOM     19  C   UNL     1       0.030   4.309   7.340  0.00  0.00    +0.103 C 
ATOM     20  N   UNL     1       0.365   3.247   7.037  0.00  0.00    -0.191 NA
ENDBRANCH   6  19
BRANCH   1  21
ATOM     21  O   UNL     1      -2.381   5.500   6.071  0.00  0.00    -0.455 OA
BRANCH  21  26
ATOM     22  C   UNL     1      -4.375   2.727   7.734  0.00  0.00    -0.029 A 
ATOM     23  C   UNL     1      -5.699   3.281   7.591  0.00  0.00    +0.005 A 
ATOM     24  C   UNL     1      -5.908   4.549   6.958  0.00  0.00    +0.004 A 
ATOM     25  C   UNL     1      -4.812   5.297   6.449  0.00  0.00    +0.046 A 
ATOM     26  C   UNL     1      -3.503   4.777   6.571  0.00  0.00    +0.129 A 
ATOM     27  C   UNL     1      -3.316   3.509   7.210  0.00  0.00    +0.051 A 
BRANCH  22  28
ATOM     28  C   UNL     1      -4.061   1.305   8.416  0.00  0.00    +0.072 C 
ATOM     29  C   UNL     1      -5.292   0.972   9.390  0.00  0.00    +0.021 C 
ATOM     30  C   UNL     1      -5.633   1.954  10.535  0.00  0.00    +0.003 C 
ATOM     31  C   UNL     1      -4.527   2.134  11.576  0.00  0.00    +0.019 C 
ATOM     32  C   UNL     1      -3.310   2.887  11.051  0.00  0.00    +0.107 C 
ATOM     33  N   UNL     1      -2.372   2.007  10.342  0.00  0.00    -0.304 N 
ATOM     34  C   UNL     1      -1.052   1.918  10.971  0.00  0.00    +0.132 C 
ATOM     35  C   UNL     1      -2.630   1.238   9.166  0.00  0.00    +0.226 C 
ATOM     36  O   UNL     1      -1.730   0.501   8.709  0.00  0.00    -0.275 OA
BRANCH  28  37
ATOM     37  C   UNL     1      -4.019   0.154   7.323  0.00  0.00    +0.017 C 
ATOM     38  C   UNL     1      -3.842   0.590   5.852  0.00  0.00    +0.005 C 
ENDBRANCH  28  37
ENDBRANCH  22  28
ENDBRANCH  21  26
ENDBRANCH   1  21
TORSDOF 8
