REMARK  Name = LIGAND
REMARK  12 active torsions:
REMARK  status: ('A' for Active; 'I' for Inactive)
REMARK    1  A    between atoms: C_1  and  C_2
REMARK    2  A    between atoms: C_1  and  C_7
REMARK    3  A    between atoms: C_7  and  C_19
REMARK    4  A    between atoms: N_14  and  C_29
REMARK    5  A    between atoms: C_23  and  O_36
REMARK    6  A    between atoms: O_36  and  C_39
REMARK    7  A    between atoms: C_40  and  C_45
REMARK    8  A    between atoms: C_46  and  C_50
REMARK    9  A    between atoms: C_50  and  C_51
REMARK   10  A    between atoms: C_50  and  C_52
REMARK   11  A    between atoms: C_50  and  N_56
REMARK   12  A    between atoms: N_60  and  C_65
REMARK                            x       y       z     vdW  Elec       q    Type
REMARK                         _______ _______ _______ _____ _____    ______ ____
ROOT
ATOM      1  C   UNL     1      -1.007  -2.785  -5.935  0.00  0.00    +0.146 A 
ATOM      2  C   UNL     1       0.041  -3.735  -5.775  0.00  0.00    +0.050 A 
ATOM      3  C   UNL     1      -0.168  -5.132  -6.008  0.00  0.00    -0.050 A 
ATOM      4  C   UNL     1      -1.485  -5.548  -6.404  0.00  0.00    +0.004 A 
ATOM      5  C   UNL     1      -2.538  -4.611  -6.563  0.00  0.00    +0.023 A 
ATOM      6  C   UNL     1      -2.312  -3.230  -6.339  0.00  0.00    +0.094 A 
ENDROOT
BRANCH   3   7
ATOM      7  C   UNL     1       0.971  -6.173  -5.839  0.00  0.00    -0.005 C 
ATOM      8  C   UNL     1       2.342  -5.578  -6.301  0.00  0.00    +0.001 C 
BRANCH   7   9
ATOM      9  C   UNL     1       1.123  -6.681  -4.405  0.00  0.00    +0.030 A 
ATOM     10  C   UNL     1       0.661  -7.848  -3.794  0.00  0.00    +0.132 A 
ATOM     11  N   UNL     1       1.018  -7.946  -2.478  0.00  0.00    -0.244 NA
ATOM     12  C   UNL     1       1.698  -6.834  -2.298  0.00  0.00    +0.199 A 
ATOM     13  N   UNL     1       1.800  -6.034  -3.386  0.00  0.00    -0.338 N 
ATOM     14  C   UNL     1       2.521  -4.771  -3.331  0.00  0.00    +0.150 C 
ENDBRANCH   7   9
BRANCH   7  15
ATOM     15  N   UNL     1       0.671  -7.349  -6.661  0.00  0.00    +0.388 N 
ATOM     16  H   UNL     1       1.143  -8.174  -6.267  0.00  0.00    -0.088 HD
ATOM     17  H   UNL     1       1.006  -7.190  -7.623  0.00  0.00    -0.088 HD
ATOM     18  H   UNL     1      -0.346  -7.509  -6.675  0.00  0.00    -0.088 HD
ENDBRANCH   7  15
ENDBRANCH   3   7
BRANCH   6  19
ATOM     19  C   UNL     1      -3.376  -2.310  -6.611  0.00  0.00    +0.103 C 
ATOM     20  N   UNL     1      -4.225  -1.582  -6.894  0.00  0.00    -0.191 NA
ENDBRANCH   6  19
BRANCH   1  21
ATOM     21  O   UNL     1      -0.687  -1.429  -5.695  0.00  0.00    -0.455 OA
BRANCH  21  26
ATOM     22  C   UNL     1       0.784   0.275  -2.634  0.00  0.00    -0.029 A 
ATOM     23  C   UNL     1      -0.121  -0.236  -1.633  0.00  0.00    +0.005 A 
ATOM     24  C   UNL     1      -1.191  -1.120  -1.983  0.00  0.00    +0.004 A 
ATOM     25  C   UNL     1      -1.391  -1.525  -3.331  0.00  0.00    +0.046 A 
ATOM     26  C   UNL     1      -0.517  -1.044  -4.333  0.00  0.00    +0.129 A 
ATOM     27  C   UNL     1       0.545  -0.157  -3.963  0.00  0.00    +0.051 A 
BRANCH  22  28
ATOM     28  C   UNL     1       2.017   1.257  -2.320  0.00  0.00    +0.072 C 
ATOM     29  C   UNL     1       1.456   2.423  -1.372  0.00  0.00    +0.021 C 
ATOM     30  C   UNL     1       0.293   3.309  -1.876  0.00  0.00    +0.003 C 
ATOM     31  C   UNL     1       0.608   4.129  -3.128  0.00  0.00    +0.019 C 
ATOM     32  C   UNL     1       0.752   3.287  -4.391  0.00  0.00    +0.107 C 
ATOM     33  N   UNL     1       2.100   2.722  -4.534  0.00  0.00    -0.304 N 
ATOM     34  C   UNL     1       2.816   3.191  -5.723  0.00  0.00    +0.132 C 
ATOM     35  C   UNL     1       2.760   1.823  -3.641  0.00  0.00    +0.226 C 
ATOM     36  O   UNL     1       3.932   1.466  -3.887  0.00  0.00    -0.275 OA
BRANCH  28  37
ATOM     37  C   UNL     1       3.143   0.499  -1.495  0.00  0.00    +0.017 C 
ATOM     38  C   UNL     1       3.741   1.243  -0.280  0.00  0.00    +0.005 C 
ENDBRANCH  28  37
ENDBRANCH  22  28
ENDBRANCH  21  26
ENDBRANCH   1  21
TORSDOF 8
