REMARK  Name = LIGAND
REMARK  8 active torsions:
REMARK  status: ('A' for Active; 'I' for Inactive)
REMARK    1  A    between atoms: C_2  and  C_4
REMARK    2  A    between atoms: C_4  and  C_7
REMARK    3  A    between atoms: C_11  and  O_12
REMARK    4  A    between atoms: O_12  and  C_13
REMARK    5  A    between atoms: C_18  and  O_19
REMARK    6  A    between atoms: C_21  and  C_24
REMARK    7  A    between atoms: C_24  and  C_26
REMARK    8  A    between atoms: C_24  and  C_30
REMARK                            x       y       z     vdW  Elec       q    Type
REMARK                         _______ _______ _______ _____ _____    ______ ____
ROOT
ATOM      1  C   UNL     1      -2.908   0.854  -4.684  0.00  0.00    -0.034 A 
ATOM      2  C   UNL     1      -4.312   0.521  -4.900  0.00  0.00    +0.028 A 
ATOM      3  C   UNL     1      -4.803  -0.747  -4.454  0.00  0.00    +0.085 A 
ATOM      4 CL   UNL     1      -6.442  -1.099  -4.745  0.00  0.00    -0.080 Cl
ATOM      5  C   UNL     1      -3.969  -1.683  -3.798  0.00  0.00    +0.165 A 
ATOM      6  C   UNL     1      -2.578  -1.334  -3.584  0.00  0.00    +0.085 A 
ATOM      7 CL   UNL     1      -1.555  -2.395  -2.790  0.00  0.00    -0.080 Cl
ATOM      8  C   UNL     1      -2.059  -0.087  -4.025  0.00  0.00    +0.028 A 
ENDROOT
BRANCH   1   9
ATOM      9  C   UNL     1      -2.234   2.116  -5.109  0.00  0.00    +0.160 C 
BRANCH   9  11
ATOM     10  O   UNL     1      -1.428   2.292  -7.308  0.00  0.00    -0.246 OA
ATOM     11  C   UNL     1      -2.408   2.661  -6.445  0.00  0.00    +0.360 C 
ATOM     12  O   UNL     1      -3.387   3.372  -6.714  0.00  0.00    -0.246 OA
ENDBRANCH   9  11
ENDBRANCH   1   9
BRANCH   5  13
ATOM     13  O   UNL     1      -4.556  -2.850  -3.432  0.00  0.00    -0.453 OA
BRANCH  13  14
ATOM     14  C   UNL     1      -4.378  -4.049  -4.264  0.00  0.00    +0.129 A 
ATOM     15  C   UNL     1      -4.498  -5.348  -3.618  0.00  0.00    +0.053 A 
ATOM     16  C   UNL     1      -4.325  -6.591  -4.363  0.00  0.00    +0.000 A 
ATOM     17  C   UNL     1      -4.018  -6.506  -5.790  0.00  0.00    +0.120 A 
ATOM     18  C   UNL     1      -3.903  -5.229  -6.439  0.00  0.00    +0.049 A 
ATOM     19  C   UNL     1      -4.072  -4.007  -5.707  0.00  0.00    +0.050 A 
BRANCH  16  20
ATOM     20  C   UNL     1      -4.452  -7.999  -3.662  0.00  0.00    +0.017 C 
ATOM     21  C   UNL     1      -3.761  -8.044  -2.237  0.00  0.00    +0.012 C 
ATOM     22  C   UNL     1      -5.959  -8.294  -3.500  0.00  0.00    +0.012 C 
ENDBRANCH  16  20
BRANCH  17  23
ATOM     23  O   UNL     1      -3.842  -7.662  -6.538  0.00  0.00    -0.506 OA
ATOM     24  H   UNL     1      -3.097  -7.511  -7.233  0.00  0.00    +0.292 HD
ENDBRANCH  17  23
ENDBRANCH  13  14
ENDBRANCH   5  13
TORSDOF 6
