REMARK  Name = LIGAND
REMARK  8 active torsions:
REMARK  status: ('A' for Active; 'I' for Inactive)
REMARK    1  A    between atoms: C_2  and  C_4
REMARK    2  A    between atoms: C_4  and  C_7
REMARK    3  A    between atoms: C_11  and  O_12
REMARK    4  A    between atoms: O_12  and  C_13
REMARK    5  A    between atoms: C_18  and  O_19
REMARK    6  A    between atoms: C_21  and  C_24
REMARK    7  A    between atoms: C_24  and  C_26
REMARK    8  A    between atoms: C_24  and  C_30
REMARK                            x       y       z     vdW  Elec       q    Type
REMARK                         _______ _______ _______ _____ _____    ______ ____
ROOT
ATOM      1  C   UNL     1      -0.642   4.754  -7.445  0.00  0.00    -0.034 A 
ATOM      2  C   UNL     1      -0.328   4.461  -8.839  0.00  0.00    +0.028 A 
ATOM      3  C   UNL     1       0.287   3.211  -9.166  0.00  0.00    +0.085 A 
ATOM      4 CL   UNL     1       0.653   2.922 -10.802  0.00  0.00    -0.080 Cl
ATOM      5  C   UNL     1       0.588   2.245  -8.177  0.00  0.00    +0.165 A 
ATOM      6  C   UNL     1       0.262   2.548  -6.797  0.00  0.00    +0.085 A 
ATOM      7 CL   UNL     1       0.574   1.429  -5.592  0.00  0.00    -0.080 Cl
ATOM      8  C   UNL     1      -0.339   3.786  -6.441  0.00  0.00    +0.028 A 
ENDROOT
BRANCH   1   9
ATOM      9  C   UNL     1      -1.257   6.015  -6.935  0.00  0.00    +0.160 C 
BRANCH   9  11
ATOM     10  O   UNL     1       0.754   6.946  -6.156  0.00  0.00    -0.246 OA
ATOM     11  C   UNL     1      -0.584   6.850  -5.953  0.00  0.00    +0.360 C 
ATOM     12  O   UNL     1      -1.228   7.409  -5.054  0.00  0.00    -0.246 OA
ENDBRANCH   9  11
ENDBRANCH   1   9
BRANCH   5  13
ATOM     13  O   UNL     1       1.176   1.105  -8.618  0.00  0.00    -0.453 OA
BRANCH  13  14
ATOM     14  C   UNL     1       0.353  -0.083  -8.889  0.00  0.00    +0.129 A 
ATOM     15  C   UNL     1       1.015  -1.257  -9.437  0.00  0.00    +0.053 A 
ATOM     16  C   UNL     1       0.275  -2.477  -9.748  0.00  0.00    +0.000 A 
ATOM     17  C   UNL     1      -1.166  -2.495  -9.501  0.00  0.00    +0.120 A 
ATOM     18  C   UNL     1      -1.829  -1.343  -8.954  0.00  0.00    +0.049 A 
ATOM     19  C   UNL     1      -1.102  -0.143  -8.649  0.00  0.00    +0.050 A 
BRANCH  16  20
ATOM     20  C   UNL     1       0.993  -3.749 -10.346  0.00  0.00    +0.017 C 
ATOM     21  C   UNL     1       0.552  -4.064 -11.834  0.00  0.00    +0.012 C 
ATOM     22  C   UNL     1       2.511  -3.471 -10.318  0.00  0.00    +0.012 C 
ENDBRANCH  16  20
BRANCH  17  23
ATOM     23  O   UNL     1      -1.911  -3.630  -9.784  0.00  0.00    -0.506 OA
ATOM     24  H   UNL     1      -2.830  -3.354 -10.160  0.00  0.00    +0.292 HD
ENDBRANCH  17  23
ENDBRANCH  13  14
ENDBRANCH   5  13
TORSDOF 6
