REMARK  Name = LIGAND
REMARK  8 active torsions:
REMARK  status: ('A' for Active; 'I' for Inactive)
REMARK    1  A    between atoms: C_2  and  C_4
REMARK    2  A    between atoms: C_4  and  C_7
REMARK    3  A    between atoms: C_11  and  O_12
REMARK    4  A    between atoms: O_12  and  C_13
REMARK    5  A    between atoms: C_18  and  O_19
REMARK    6  A    between atoms: C_21  and  C_24
REMARK    7  A    between atoms: C_24  and  C_26
REMARK    8  A    between atoms: C_24  and  C_30
REMARK                            x       y       z     vdW  Elec       q    Type
REMARK                         _______ _______ _______ _____ _____    ______ ____
ROOT
ATOM      1  C   UNL     1       1.472   1.939   0.495  0.00  0.00    -0.034 A 
ATOM      2  C   UNL     1       1.762   2.196   1.901  0.00  0.00    +0.028 A 
ATOM      3  C   UNL     1       2.763   3.162   2.239  0.00  0.00    +0.085 A 
ATOM      4 CL   UNL     1       3.082   3.414   3.891  0.00  0.00    -0.080 Cl
ATOM      5  C   UNL     1       3.470   3.883   1.249  0.00  0.00    +0.165 A 
ATOM      6  C   UNL     1       3.164   3.622  -0.144  0.00  0.00    +0.085 A 
ATOM      7 CL   UNL     1       3.953   4.467  -1.354  0.00  0.00    -0.080 Cl
ATOM      8  C   UNL     1       2.183   2.661  -0.510  0.00  0.00    +0.028 A 
ENDROOT
BRANCH   1   9
ATOM      9  C   UNL     1       0.482   0.949  -0.025  0.00  0.00    +0.160 C 
BRANCH   9  11
ATOM     10  O   UNL     1       0.642  -1.378   0.248  0.00  0.00    -0.246 OA
ATOM     11  C   UNL     1       0.897  -0.330  -0.576  0.00  0.00    +0.360 C 
ATOM     12  O   UNL     1       1.411  -0.394  -1.702  0.00  0.00    -0.246 OA
ENDBRANCH   9  11
ENDBRANCH   1   9
BRANCH   5  13
ATOM     13  O   UNL     1       4.397   4.765   1.702  0.00  0.00    -0.453 OA
BRANCH  13  14
ATOM     14  C   UNL     1       5.804   4.353   1.806  0.00  0.00    +0.129 A 
ATOM     15  C   UNL     1       6.824   5.320   1.425  0.00  0.00    +0.053 A 
ATOM     16  C   UNL     1       8.246   4.995   1.486  0.00  0.00    +0.000 A 
ATOM     17  C   UNL     1       8.633   3.659   1.937  0.00  0.00    +0.120 A 
ATOM     18  C   UNL     1       7.634   2.699   2.320  0.00  0.00    +0.049 A 
ATOM     19  C   UNL     1       6.236   3.018   2.261  0.00  0.00    +0.050 A 
BRANCH  16  20
ATOM     20  C   UNL     1       9.352   6.042   1.070  0.00  0.00    +0.017 C 
ATOM     21  C   UNL     1       9.513   6.178  -0.500  0.00  0.00    +0.012 C 
ATOM     22  C   UNL     1       8.928   7.408   1.653  0.00  0.00    +0.012 C 
ENDBRANCH  16  20
BRANCH  17  23
ATOM     23  O   UNL     1       9.972   3.304   2.007  0.00  0.00    -0.506 OA
ATOM     24  H   UNL     1      10.233   2.778   1.160  0.00  0.00    +0.292 HD
ENDBRANCH  17  23
ENDBRANCH  13  14
ENDBRANCH   5  13
TORSDOF 6
