REMARK  Name = LIGAND
REMARK  9 active torsions:
REMARK  status: ('A' for Active; 'I' for Inactive)
REMARK    1  A    between atoms: S_2  and  N_4
REMARK    2  A    between atoms: S_2  and  C_17
REMARK    3  A    between atoms: N_4  and  C_6
REMARK    4  A    between atoms: C_6  and  C_9
REMARK    5  A    between atoms: C_24  and  N_31
REMARK    6  A    between atoms: C_25  and  O_26
REMARK    7  A    between atoms: O_26  and  C_27
REMARK    8  A    between atoms: C_35  and  C_39
REMARK    9  A    between atoms: C_42  and  C_49
REMARK                            x       y       z     vdW  Elec       q    Type
REMARK                         _______ _______ _______ _____ _____    ______ ____
ROOT
ATOM      1  N   UNL     1       2.939  28.100  18.157  0.00  0.00    -0.266 N 
ATOM      2  H   UNL     1       3.744  27.461  18.092  0.00  0.00    +0.157 HD
ATOM      3  C   UNL     1       2.859  29.108  17.251  0.00  0.00    +0.292 A 
ATOM      4  N   UNL     1       3.811  29.380  16.306  0.00  0.00    -0.203 NA
ATOM      5  C   UNL     1       3.350  30.513  15.703  0.00  0.00    +0.163 A 
ATOM      6  C   UNL     1       2.164  30.901  16.325  0.00  0.00    +0.157 A 
ATOM      7  O   UNL     1       1.835  29.981  17.265  0.00  0.00    -0.424 OA
ENDROOT
BRANCH   1  10
ATOM      8  C   UNL     1       0.257  28.617  20.772  0.00  0.00    +0.107 A 
ATOM      9  C   UNL     1       1.270  28.887  19.820  0.00  0.00    +0.055 A 
ATOM     10  C   UNL     1       2.006  27.868  19.172  0.00  0.00    +0.079 A 
ATOM     11  C   UNL     1       1.727  26.553  19.510  0.00  0.00    +0.141 A 
ATOM     12  C   UNL     1       0.740  26.264  20.472  0.00  0.00    +0.049 A 
ATOM     13  C   UNL     1       0.005  27.285  21.076  0.00  0.00    +0.032 A 
BRANCH   8  15
ATOM     14  O   UNL     1      -0.037  31.044  21.305  0.00  0.00    -0.153 OA
ATOM     15  S   UNL     1      -0.605  29.778  21.561  0.00  0.00    +0.058 S 
ATOM     16  O   UNL     1      -0.477  29.435  22.941  0.00  0.00    -0.153 OA
BRANCH  15  17
ATOM     17  N   UNL     1      -2.100  29.857  21.021  0.00  0.00    -0.190 NA
ATOM     18  H   UNL     1      -2.906  29.726  21.649  0.00  0.00    +0.148 HD
BRANCH  17  19
ATOM     19  C   UNL     1      -2.281  30.124  19.594  0.00  0.00    +0.109 C 
BRANCH  19  20
ATOM     20  C   UNL     1      -3.697  30.582  19.247  0.00  0.00    +0.005 C 
ATOM     21  C   UNL     1      -3.906  32.070  19.018  0.00  0.00    +0.005 C 
ATOM     22  C   UNL     1      -3.861  31.122  17.827  0.00  0.00    +0.005 C 
ENDBRANCH  19  20
ENDBRANCH  17  19
ENDBRANCH  15  17
ENDBRANCH   8  15
BRANCH  11  23
ATOM     23  O   UNL     1       2.444  25.573  18.876  0.00  0.00    -0.493 OA
ATOM     24  C   UNL     1       2.272  24.164  19.097  0.00  0.00    +0.277 C 
ENDBRANCH  11  23
ENDBRANCH   1  10
BRANCH   6  25
ATOM     25  C   UNL     1       1.204  31.967  16.050  0.00  0.00    +0.019 A 
ATOM     26  C   UNL     1       0.219  32.250  17.003  0.00  0.00    +0.011 A 
ATOM     27  C   UNL     1      -0.746  33.199  16.734  0.00  0.00    +0.001 A 
ATOM     28  C   UNL     1      -0.769  33.879  15.520  0.00  0.00    +0.008 A 
ATOM     29  C   UNL     1       0.191  33.555  14.539  0.00  0.00    -0.016 A 
ATOM     30  C   UNL     1       1.152  32.577  14.797  0.00  0.00    +0.020 A 
BRANCH  29  31
ATOM     31  C   UNL     1       0.189  34.233  13.205  0.00  0.00    -0.002 A 
ATOM     32  C   UNL     1       0.391  33.492  12.044  0.00  0.00    +0.011 A 
ATOM     33  C   UNL     1       0.428  34.170  10.822  0.00  0.00    +0.018 A 
ATOM     34  C   UNL     1       0.225  35.552  10.772  0.00  0.00    +0.082 A 
ATOM     35  N   UNL     1       0.031  36.250  11.897  0.00  0.00    -0.366 N 
ATOM     36  H   UNL     1      -0.097  37.271  11.851  0.00  0.00    +0.165 HD
ATOM     37  C   UNL     1       0.002  35.621  13.093  0.00  0.00    +0.091 A 
ENDBRANCH  29  31
ENDBRANCH   6  25
TORSDOF 8
