REMARK  Name = LIGAND
REMARK  9 active torsions:
REMARK  status: ('A' for Active; 'I' for Inactive)
REMARK    1  A    between atoms: S_2  and  N_4
REMARK    2  A    between atoms: S_2  and  C_17
REMARK    3  A    between atoms: N_4  and  C_6
REMARK    4  A    between atoms: C_6  and  C_9
REMARK    5  A    between atoms: C_24  and  N_31
REMARK    6  A    between atoms: C_25  and  O_26
REMARK    7  A    between atoms: O_26  and  C_27
REMARK    8  A    between atoms: C_35  and  C_39
REMARK    9  A    between atoms: C_42  and  C_49
REMARK                            x       y       z     vdW  Elec       q    Type
REMARK                         _______ _______ _______ _____ _____    ______ ____
ROOT
ATOM      1  N   UNL     1       2.935   6.072  -3.644  0.00  0.00    -0.266 N 
ATOM      2  H   UNL     1       3.821   5.569  -3.794  0.00  0.00    +0.157 HD
ATOM      3  C   UNL     1       1.851   5.343  -3.272  0.00  0.00    +0.292 A 
ATOM      4  N   UNL     1       1.836   3.979  -3.155  0.00  0.00    -0.203 NA
ATOM      5  C   UNL     1       0.535   3.698  -2.856  0.00  0.00    +0.163 A 
ATOM      6  C   UNL     1      -0.189   4.889  -2.839  0.00  0.00    +0.157 A 
ATOM      7  O   UNL     1       0.659   5.926  -3.051  0.00  0.00    -0.424 OA
ENDROOT
BRANCH   1  10
ATOM      8  C   UNL     1       2.229   9.511  -5.049  0.00  0.00    +0.107 A 
ATOM      9  C   UNL     1       2.306   8.102  -4.930  0.00  0.00    +0.055 A 
ATOM     10  C   UNL     1       2.932   7.456  -3.839  0.00  0.00    +0.079 A 
ATOM     11  C   UNL     1       3.512   8.251  -2.862  0.00  0.00    +0.141 A 
ATOM     12  C   UNL     1       3.468   9.654  -2.974  0.00  0.00    +0.049 A 
ATOM     13  C   UNL     1       2.817  10.269  -4.044  0.00  0.00    +0.032 A 
BRANCH   8  15
ATOM     14  O   UNL     1       1.238   9.373  -7.343  0.00  0.00    -0.153 OA
ATOM     15  S   UNL     1       1.526  10.296  -6.315  0.00  0.00    +0.058 S 
ATOM     16  O   UNL     1       2.515  11.235  -6.740  0.00  0.00    -0.153 OA
BRANCH  15  17
ATOM     17  N   UNL     1       0.128  10.931  -5.898  0.00  0.00    -0.190 NA
ATOM     18  H   UNL     1      -0.094  11.145  -4.916  0.00  0.00    +0.148 HD
BRANCH  17  19
ATOM     19  C   UNL     1      -0.831  11.196  -6.971  0.00  0.00    +0.109 C 
BRANCH  19  20
ATOM     20  C   UNL     1      -2.261  11.376  -6.464  0.00  0.00    +0.005 C 
ATOM     21  C   UNL     1      -2.592  12.692  -5.780  0.00  0.00    +0.005 C 
ATOM     22  C   UNL     1      -3.070  12.440  -7.204  0.00  0.00    +0.005 C 
ENDBRANCH  19  20
ENDBRANCH  17  19
ENDBRANCH  15  17
ENDBRANCH   8  15
BRANCH  11  23
ATOM     23  O   UNL     1       4.115   7.616  -1.809  0.00  0.00    -0.493 OA
ATOM     24  C   UNL     1       5.392   6.962  -1.874  0.00  0.00    +0.277 C 
ENDBRANCH  11  23
ENDBRANCH   1  10
BRANCH   6  25
ATOM     25  C   UNL     1      -1.575   5.201  -2.500  0.00  0.00    +0.019 A 
ATOM     26  C   UNL     1      -2.366   4.207  -1.914  0.00  0.00    +0.011 A 
ATOM     27  C   UNL     1      -3.700   4.452  -1.656  0.00  0.00    +0.001 A 
ATOM     28  C   UNL     1      -4.283   5.673  -1.980  0.00  0.00    +0.008 A 
ATOM     29  C   UNL     1      -3.499   6.655  -2.620  0.00  0.00    -0.016 A 
ATOM     30  C   UNL     1      -2.158   6.401  -2.906  0.00  0.00    +0.020 A 
BRANCH  29  31
ATOM     31  C   UNL     1      -4.088   7.972  -3.018  0.00  0.00    -0.002 A 
ATOM     32  C   UNL     1      -3.271   9.091  -3.150  0.00  0.00    +0.011 A 
ATOM     33  C   UNL     1      -3.867  10.312  -3.479  0.00  0.00    +0.018 A 
ATOM     34  C   UNL     1      -5.243  10.390  -3.709  0.00  0.00    +0.082 A 
ATOM     35  N   UNL     1      -6.015   9.305  -3.579  0.00  0.00    -0.366 N 
ATOM     36  H   UNL     1      -7.031   9.377  -3.731  0.00  0.00    +0.165 HD
ATOM     37  C   UNL     1      -5.466   8.114  -3.251  0.00  0.00    +0.091 A 
ENDBRANCH  29  31
ENDBRANCH   6  25
TORSDOF 8
