REMARK  Name = LIGAND
REMARK  9 active torsions:
REMARK  status: ('A' for Active; 'I' for Inactive)
REMARK    1  A    between atoms: S_2  and  N_4
REMARK    2  A    between atoms: S_2  and  C_17
REMARK    3  A    between atoms: N_4  and  C_6
REMARK    4  A    between atoms: C_6  and  C_9
REMARK    5  A    between atoms: C_24  and  N_31
REMARK    6  A    between atoms: C_25  and  O_26
REMARK    7  A    between atoms: O_26  and  C_27
REMARK    8  A    between atoms: C_35  and  C_39
REMARK    9  A    between atoms: C_42  and  C_49
REMARK                            x       y       z     vdW  Elec       q    Type
REMARK                         _______ _______ _______ _____ _____    ______ ____
ROOT
ATOM      1  N   UNL     1       5.305  -6.180   4.836  0.00  0.00    -0.266 N 
ATOM      2  H   UNL     1       5.995  -5.580   5.310  0.00  0.00    +0.157 HD
ATOM      3  C   UNL     1       5.375  -7.518   5.056  0.00  0.00    +0.292 A 
ATOM      4  N   UNL     1       6.344  -8.132   5.804  0.00  0.00    -0.203 NA
ATOM      5  C   UNL     1       6.063  -9.459   5.664  0.00  0.00    +0.163 A 
ATOM      6  C   UNL     1       4.966  -9.598   4.815  0.00  0.00    +0.157 A 
ATOM      7  O   UNL     1       4.507  -8.368   4.478  0.00  0.00    -0.424 OA
ENDROOT
BRANCH   1  10
ATOM      8  C   UNL     1       3.200  -5.253   1.835  0.00  0.00    +0.107 A 
ATOM      9  C   UNL     1       4.229  -5.818   2.626  0.00  0.00    +0.055 A 
ATOM     10  C   UNL     1       4.363  -5.559   4.010  0.00  0.00    +0.079 A 
ATOM     11  C   UNL     1       3.453  -4.694   4.598  0.00  0.00    +0.141 A 
ATOM     12  C   UNL     1       2.437  -4.103   3.823  0.00  0.00    +0.049 A 
ATOM     13  C   UNL     1       2.306  -4.398   2.466  0.00  0.00    +0.032 A 
BRANCH   8  15
ATOM     14  O   UNL     1       2.999  -6.904  -0.035  0.00  0.00    -0.153 OA
ATOM     15  S   UNL     1       3.026  -5.516   0.218  0.00  0.00    +0.058 S 
ATOM     16  O   UNL     1       4.185  -4.918  -0.363  0.00  0.00    -0.153 OA
BRANCH  15  17
ATOM     17  N   UNL     1       1.636  -4.952  -0.314  0.00  0.00    -0.190 NA
ATOM     18  H   UNL     1       0.739  -5.340   0.009  0.00  0.00    +0.148 HD
BRANCH  17  19
ATOM     19  C   UNL     1       1.687  -3.857  -1.284  0.00  0.00    +0.109 C 
BRANCH  19  20
ATOM     20  C   UNL     1       1.363  -4.305  -2.708  0.00  0.00    +0.005 C 
ATOM     21  C   UNL     1       0.274  -3.540  -3.443  0.00  0.00    +0.005 C 
ATOM     22  C   UNL     1       1.736  -3.296  -3.793  0.00  0.00    +0.005 C 
ENDBRANCH  19  20
ENDBRANCH  17  19
ENDBRANCH  15  17
ENDBRANCH   8  15
BRANCH  11  23
ATOM     23  O   UNL     1       3.591  -4.451   5.939  0.00  0.00    -0.493 OA
ATOM     24  C   UNL     1       2.688  -3.651   6.719  0.00  0.00    +0.277 C 
ENDBRANCH  11  23
ENDBRANCH   1  10
BRANCH   6  25
ATOM     25  C   UNL     1       4.187 -10.757   4.385  0.00  0.00    +0.019 A 
ATOM     26  C   UNL     1       3.488 -11.495   5.347  0.00  0.00    +0.011 A 
ATOM     27  C   UNL     1       2.808 -12.637   4.977  0.00  0.00    +0.001 A 
ATOM     28  C   UNL     1       2.813 -13.084   3.659  0.00  0.00    +0.008 A 
ATOM     29  C   UNL     1       3.562 -12.370   2.701  0.00  0.00    -0.016 A 
ATOM     30  C   UNL     1       4.272 -11.230   3.076  0.00  0.00    +0.020 A 
BRANCH  29  31
ATOM     31  C   UNL     1       3.627 -12.828   1.277  0.00  0.00    -0.002 A 
ATOM     32  C   UNL     1       3.249 -11.968   0.249  0.00  0.00    +0.011 A 
ATOM     33  C   UNL     1       3.281 -12.449  -1.063  0.00  0.00    +0.018 A 
ATOM     34  C   UNL     1       3.721 -13.748  -1.331  0.00  0.00    +0.082 A 
ATOM     35  N   UNL     1       4.081 -14.562  -0.332  0.00  0.00    -0.366 N 
ATOM     36  H   UNL     1       4.384 -15.524  -0.539  0.00  0.00    +0.165 HD
ATOM     37  C   UNL     1       4.050 -14.126   0.947  0.00  0.00    +0.091 A 
ENDBRANCH  29  31
ENDBRANCH   6  25
TORSDOF 8
