REMARK  Name = LIGAND
REMARK  9 active torsions:
REMARK  status: ('A' for Active; 'I' for Inactive)
REMARK    1  A    between atoms: S_2  and  N_4
REMARK    2  A    between atoms: S_2  and  C_17
REMARK    3  A    between atoms: N_4  and  C_6
REMARK    4  A    between atoms: C_6  and  C_9
REMARK    5  A    between atoms: C_24  and  N_31
REMARK    6  A    between atoms: C_25  and  O_26
REMARK    7  A    between atoms: O_26  and  C_27
REMARK    8  A    between atoms: C_35  and  C_39
REMARK    9  A    between atoms: C_42  and  C_49
REMARK                            x       y       z     vdW  Elec       q    Type
REMARK                         _______ _______ _______ _____ _____    ______ ____
ROOT
ATOM      1  N   UNL     1      -4.358   4.932   4.815  0.00  0.00    -0.266 N 
ATOM      2  H   UNL     1      -4.399   4.681   5.812  0.00  0.00    +0.157 HD
ATOM      3  C   UNL     1      -3.305   5.680   4.396  0.00  0.00    +0.292 A 
ATOM      4  N   UNL     1      -2.336   6.187   5.219  0.00  0.00    -0.203 NA
ATOM      5  C   UNL     1      -1.560   6.932   4.380  0.00  0.00    +0.163 A 
ATOM      6  C   UNL     1      -2.106   6.878   3.098  0.00  0.00    +0.157 A 
ATOM      7  O   UNL     1      -3.175   6.045   3.107  0.00  0.00    -0.424 OA
ENDROOT
BRANCH   1  10
ATOM      8  C   UNL     1      -7.506   4.803   2.725  0.00  0.00    +0.107 A 
ATOM      9  C   UNL     1      -6.527   5.247   3.647  0.00  0.00    +0.055 A 
ATOM     10  C   UNL     1      -5.390   4.479   3.988  0.00  0.00    +0.079 A 
ATOM     11  C   UNL     1      -5.252   3.230   3.402  0.00  0.00    +0.141 A 
ATOM     12  C   UNL     1      -6.227   2.760   2.501  0.00  0.00    +0.049 A 
ATOM     13  C   UNL     1      -7.326   3.549   2.156  0.00  0.00    +0.032 A 
BRANCH   8  15
ATOM     14  O   UNL     1      -9.755   4.826   1.627  0.00  0.00    -0.153 OA
ATOM     15  S   UNL     1      -8.853   5.661   2.320  0.00  0.00    +0.058 S 
ATOM     16  O   UNL     1      -8.367   6.699   1.470  0.00  0.00    -0.153 OA
BRANCH  15  17
ATOM     17  N   UNL     1      -9.633   6.159   3.615  0.00  0.00    -0.190 NA
ATOM     18  H   UNL     1      -9.137   6.582   4.413  0.00  0.00    +0.148 HD
BRANCH  17  19
ATOM     19  C   UNL     1     -11.087   5.991   3.624  0.00  0.00    +0.109 C 
BRANCH  19  20
ATOM     20  C   UNL     1     -11.707   6.233   5.000  0.00  0.00    +0.005 C 
ATOM     21  C   UNL     1     -10.765   6.638   6.122  0.00  0.00    +0.005 C 
ATOM     22  C   UNL     1     -11.661   7.685   5.473  0.00  0.00    +0.005 C 
ENDBRANCH  19  20
ENDBRANCH  17  19
ENDBRANCH  15  17
ENDBRANCH   8  15
BRANCH  11  23
ATOM     23  O   UNL     1      -4.146   2.495   3.737  0.00  0.00    -0.493 OA
ATOM     24  C   UNL     1      -2.845   2.667   3.154  0.00  0.00    +0.277 C 
ENDBRANCH  11  23
ENDBRANCH   1  10
BRANCH   6  25
ATOM     25  C   UNL     1      -1.661   7.402   1.810  0.00  0.00    +0.019 A 
ATOM     26  C   UNL     1      -2.234   6.892   0.640  0.00  0.00    +0.011 A 
ATOM     27  C   UNL     1      -1.777   7.314  -0.592  0.00  0.00    +0.001 A 
ATOM     28  C   UNL     1      -0.740   8.237  -0.697  0.00  0.00    +0.008 A 
ATOM     29  C   UNL     1      -0.127   8.711   0.481  0.00  0.00    -0.016 A 
ATOM     30  C   UNL     1      -0.568   8.265   1.727  0.00  0.00    +0.020 A 
BRANCH  29  31
ATOM     31  C   UNL     1       1.014   9.678   0.421  0.00  0.00    -0.002 A 
ATOM     32  C   UNL     1       1.814   9.885   1.541  0.00  0.00    +0.011 A 
ATOM     33  C   UNL     1       2.840  10.831   1.458  0.00  0.00    +0.018 A 
ATOM     34  C   UNL     1       3.075  11.518   0.263  0.00  0.00    +0.082 A 
ATOM     35  N   UNL     1       2.297  11.307  -0.805  0.00  0.00    -0.366 N 
ATOM     36  H   UNL     1       2.466  11.833  -1.674  0.00  0.00    +0.165 HD
ATOM     37  C   UNL     1       1.291  10.406  -0.748  0.00  0.00    +0.091 A 
ENDBRANCH  29  31
ENDBRANCH   6  25
TORSDOF 8
