REMARK  Name = LIGAND
REMARK  9 active torsions:
REMARK  status: ('A' for Active; 'I' for Inactive)
REMARK    1  A    between atoms: C_1  and  C_21
REMARK    2  A    between atoms: C_12  and  C_21
REMARK    3  A    between atoms: N_13  and  C_34
REMARK    4  A    between atoms: C_20  and  C_24
REMARK    5  A    between atoms: C_24  and  C_26
REMARK    6  A    between atoms: C_24  and  C_30
REMARK    7  A    between atoms: C_34  and  O_37
REMARK    8  A    between atoms: O_37  and  C_38
REMARK    9  A    between atoms: C_38  and  C_41
REMARK                            x       y       z     vdW  Elec       q    Type
REMARK                         _______ _______ _______ _____ _____    ______ ____
ROOT
ATOM      1  C   UNL     1      -1.826 -35.676  24.679  0.00  0.00    +0.039 A 
ATOM      2  C   UNL     1      -0.948 -36.612  24.076  0.00  0.00    +0.039 A 
ATOM      3  C   UNL     1      -0.841 -36.659  22.631  0.00  0.00    +0.258 A 
ATOM      4  O   UNL     1      -0.097 -37.424  22.020  0.00  0.00    -0.267 OA
ATOM      5  N   UNL     1      -1.643 -35.766  21.926  0.00  0.00    -0.275 N 
ATOM      6  H   UNL     1      -1.575 -35.796  20.899  0.00  0.00    +0.173 HD
ATOM      7  C   UNL     1      -2.522 -34.843  22.462  0.00  0.00    +0.331 A 
ATOM      8  O   UNL     1      -3.202 -34.135  21.722  0.00  0.00    -0.246 OA
ATOM      9  N   UNL     1      -2.601 -34.807  23.874  0.00  0.00    -0.273 N 
ENDROOT
BRANCH   2  10
ATOM     10  C   UNL     1      -0.134 -37.707  24.795  0.00  0.00    +0.020 C 
ATOM     11  C   UNL     1       1.059 -37.190  25.571  0.00  0.00    +0.012 C 
ATOM     12  C   UNL     1      -0.979 -38.784  25.502  0.00  0.00    +0.012 C 
ENDBRANCH   2  10
BRANCH   1  13
ATOM     13  C   UNL     1      -2.023 -35.580  26.203  0.00  0.00    +0.089 C 
BRANCH  13  14
ATOM     14  C   UNL     1      -1.378 -34.460  27.005  0.00  0.00    -0.042 A 
ATOM     15  C   UNL     1      -0.012 -34.143  26.843  0.00  0.00    +0.004 A 
ATOM     16  C   UNL     1       0.607 -33.172  27.666  0.00  0.00    +0.000 A 
ATOM     17  C   UNL     1      -0.152 -32.513  28.654  0.00  0.00    +0.000 A 
ATOM     18  C   UNL     1      -1.530 -32.826  28.816  0.00  0.00    +0.000 A 
ATOM     19  C   UNL     1      -2.139 -33.802  27.985  0.00  0.00    +0.004 A 
ENDBRANCH  13  14
ENDBRANCH   1  13
BRANCH   9  20
ATOM     20  C   UNL     1      -3.595 -33.857  24.460  0.00  0.00    +0.289 C 
BRANCH  20  21
ATOM     21  O   UNL     1      -4.872 -34.061  23.881  0.00  0.00    -0.355 OA
BRANCH  21  22
ATOM     22  C   UNL     1      -5.915 -33.931  24.833  0.00  0.00    +0.197 C 
BRANCH  22  23
ATOM     23  C   UNL     1      -7.052 -34.848  24.505  0.00  0.00    -0.022 A 
ATOM     24  C   UNL     1      -8.164 -34.888  25.350  0.00  0.00    +0.006 A 
ATOM     25  C   UNL     1      -9.189 -35.828  25.121  0.00  0.00    +0.000 A 
ATOM     26  C   UNL     1      -9.093 -36.729  24.033  0.00  0.00    +0.000 A 
ATOM     27  C   UNL     1      -7.970 -36.681  23.177  0.00  0.00    +0.000 A 
ATOM     28  C   UNL     1      -6.953 -35.738  23.418  0.00  0.00    +0.006 A 
ENDBRANCH  22  23
ENDBRANCH  21  22
ENDBRANCH  20  21
ENDBRANCH   9  20
TORSDOF 7
