REMARK  Name = LIGAND
REMARK  9 active torsions:
REMARK  status: ('A' for Active; 'I' for Inactive)
REMARK    1  A    between atoms: C_1  and  C_21
REMARK    2  A    between atoms: C_12  and  C_21
REMARK    3  A    between atoms: N_13  and  C_34
REMARK    4  A    between atoms: C_20  and  C_24
REMARK    5  A    between atoms: C_24  and  C_26
REMARK    6  A    between atoms: C_24  and  C_30
REMARK    7  A    between atoms: C_34  and  O_37
REMARK    8  A    between atoms: O_37  and  C_38
REMARK    9  A    between atoms: C_38  and  C_41
REMARK                            x       y       z     vdW  Elec       q    Type
REMARK                         _______ _______ _______ _____ _____    ______ ____
ROOT
ATOM      1  C   UNL     1      -1.265   0.755   1.104  0.00  0.00    +0.039 A 
ATOM      2  C   UNL     1      -2.195   1.687   1.630  0.00  0.00    +0.039 A 
ATOM      3  C   UNL     1      -2.583   1.596   3.024  0.00  0.00    +0.258 A 
ATOM      4  O   UNL     1      -3.369   2.367   3.572  0.00  0.00    -0.267 OA
ATOM      5  N   UNL     1      -2.008   0.561   3.756  0.00  0.00    -0.275 N 
ATOM      6  H   UNL     1      -2.282   0.487   4.746  0.00  0.00    +0.173 HD
ATOM      7  C   UNL     1      -1.107  -0.379   3.291  0.00  0.00    +0.331 A 
ATOM      8  O   UNL     1      -0.702  -1.268   4.037  0.00  0.00    -0.246 OA
ATOM      9  N   UNL     1      -0.734  -0.263   1.931  0.00  0.00    -0.273 N 
ENDROOT
BRANCH   2  10
ATOM     10  C   UNL     1      -2.960   2.771   0.843  0.00  0.00    +0.020 C 
ATOM     11  C   UNL     1      -2.213   4.080   0.697  0.00  0.00    +0.012 C 
ATOM     12  C   UNL     1      -3.682   2.265  -0.421  0.00  0.00    +0.012 C 
ENDBRANCH   2  10
BRANCH   1  13
ATOM     13  C   UNL     1      -0.822   0.762  -0.370  0.00  0.00    +0.089 C 
BRANCH  13  14
ATOM     14  C   UNL     1       0.621   1.053  -0.751  0.00  0.00    -0.042 A 
ATOM     15  C   UNL     1       1.581   1.378   0.231  0.00  0.00    +0.004 A 
ATOM     16  C   UNL     1       2.896   1.751  -0.138  0.00  0.00    +0.000 A 
ATOM     17  C   UNL     1       3.248   1.792  -1.502  0.00  0.00    +0.000 A 
ATOM     18  C   UNL     1       2.285   1.460  -2.494  0.00  0.00    +0.000 A 
ATOM     19  C   UNL     1       0.970   1.089  -2.111  0.00  0.00    +0.004 A 
ENDBRANCH  13  14
ENDBRANCH   1  13
BRANCH   9  20
ATOM     20  C   UNL     1       0.190  -1.313   1.404  0.00  0.00    +0.289 C 
BRANCH  20  21
ATOM     21  O   UNL     1      -0.550  -2.400   0.876  0.00  0.00    -0.355 OA
BRANCH  21  22
ATOM     22  C   UNL     1      -0.623  -3.486   1.785  0.00  0.00    +0.197 C 
BRANCH  22  23
ATOM     23  C   UNL     1      -1.737  -4.415   1.416  0.00  0.00    -0.022 A 
ATOM     24  C   UNL     1      -1.576  -5.789   1.611  0.00  0.00    +0.006 A 
ATOM     25  C   UNL     1      -2.566  -6.685   1.162  0.00  0.00    +0.000 A 
ATOM     26  C   UNL     1      -3.726  -6.193   0.516  0.00  0.00    +0.000 A 
ATOM     27  C   UNL     1      -3.889  -4.803   0.326  0.00  0.00    +0.000 A 
ATOM     28  C   UNL     1      -2.891  -3.919   0.778  0.00  0.00    +0.006 A 
ENDBRANCH  22  23
ENDBRANCH  21  22
ENDBRANCH  20  21
ENDBRANCH   9  20
TORSDOF 7
