REMARK  Name = LIGAND
REMARK  9 active torsions:
REMARK  status: ('A' for Active; 'I' for Inactive)
REMARK    1  A    between atoms: C_1  and  C_21
REMARK    2  A    between atoms: C_12  and  C_21
REMARK    3  A    between atoms: N_13  and  C_34
REMARK    4  A    between atoms: C_20  and  C_24
REMARK    5  A    between atoms: C_24  and  C_26
REMARK    6  A    between atoms: C_24  and  C_30
REMARK    7  A    between atoms: C_34  and  O_37
REMARK    8  A    between atoms: O_37  and  C_38
REMARK    9  A    between atoms: C_38  and  C_41
REMARK                            x       y       z     vdW  Elec       q    Type
REMARK                         _______ _______ _______ _____ _____    ______ ____
ROOT
ATOM      1  C   UNL     1      -4.472   0.118   2.552  0.00  0.00    +0.039 A 
ATOM      2  C   UNL     1      -4.194   1.275   3.323  0.00  0.00    +0.039 A 
ATOM      3  C   UNL     1      -4.685   1.359   4.684  0.00  0.00    +0.258 A 
ATOM      4  O   UNL     1      -4.481   2.313   5.433  0.00  0.00    -0.267 OA
ATOM      5  N   UNL     1      -5.426   0.271   5.138  0.00  0.00    -0.275 N 
ATOM      6  H   UNL     1      -5.781   0.325   6.103  0.00  0.00    +0.173 HD
ATOM      7  C   UNL     1      -5.736  -0.873   4.426  0.00  0.00    +0.331 A 
ATOM      8  O   UNL     1      -6.434  -1.748   4.935  0.00  0.00    -0.246 OA
ATOM      9  N   UNL     1      -5.236  -0.938   3.104  0.00  0.00    -0.273 N 
ENDROOT
BRANCH   2  10
ATOM     10  C   UNL     1      -3.491   2.559   2.836  0.00  0.00    +0.020 C 
ATOM     11  C   UNL     1      -2.226   2.315   2.040  0.00  0.00    +0.012 C 
ATOM     12  C   UNL     1      -4.434   3.644   2.282  0.00  0.00    +0.012 C 
ENDBRANCH   2  10
BRANCH   1  13
ATOM     13  C   UNL     1      -4.016  -0.039   1.090  0.00  0.00    +0.089 C 
BRANCH  13  14
ATOM     14  C   UNL     1      -4.943   0.321  -0.061  0.00  0.00    -0.042 A 
ATOM     15  C   UNL     1      -6.273  -0.148  -0.097  0.00  0.00    +0.004 A 
ATOM     16  C   UNL     1      -7.098   0.102  -1.220  0.00  0.00    +0.000 A 
ATOM     17  C   UNL     1      -6.584   0.831  -2.311  0.00  0.00    +0.000 A 
ATOM     18  C   UNL     1      -5.245   1.311  -2.275  0.00  0.00    +0.000 A 
ATOM     19  C   UNL     1      -4.428   1.053  -1.144  0.00  0.00    +0.004 A 
ENDBRANCH  13  14
ENDBRANCH   1  13
BRANCH   9  20
ATOM     20  C   UNL     1      -5.619  -2.142   2.307  0.00  0.00    +0.289 C 
BRANCH  20  21
ATOM     21  O   UNL     1      -4.703  -3.198   2.538  0.00  0.00    -0.355 OA
BRANCH  21  22
ATOM     22  C   UNL     1      -3.595  -3.144   1.654  0.00  0.00    +0.197 C 
BRANCH  22  23
ATOM     23  C   UNL     1      -2.376  -3.734   2.293  0.00  0.00    -0.022 A 
ATOM     24  C   UNL     1      -1.429  -4.379   1.493  0.00  0.00    +0.006 A 
ATOM     25  C   UNL     1      -0.337  -5.040   2.090  0.00  0.00    +0.000 A 
ATOM     26  C   UNL     1      -0.197  -5.047   3.499  0.00  0.00    +0.000 A 
ATOM     27  C   UNL     1      -1.153  -4.387   4.304  0.00  0.00    +0.000 A 
ATOM     28  C   UNL     1      -2.240  -3.732   3.695  0.00  0.00    +0.006 A 
ENDBRANCH  22  23
ENDBRANCH  21  22
ENDBRANCH  20  21
ENDBRANCH   9  20
TORSDOF 7
