REMARK  Name = LIGAND
REMARK  9 active torsions:
REMARK  status: ('A' for Active; 'I' for Inactive)
REMARK    1  A    between atoms: C_1  and  C_21
REMARK    2  A    between atoms: C_12  and  C_21
REMARK    3  A    between atoms: N_13  and  C_34
REMARK    4  A    between atoms: C_20  and  C_24
REMARK    5  A    between atoms: C_24  and  C_26
REMARK    6  A    between atoms: C_24  and  C_30
REMARK    7  A    between atoms: C_34  and  O_37
REMARK    8  A    between atoms: O_37  and  C_38
REMARK    9  A    between atoms: C_38  and  C_41
REMARK                            x       y       z     vdW  Elec       q    Type
REMARK                         _______ _______ _______ _____ _____    ______ ____
ROOT
ATOM      1  C   UNL     1       3.440  -6.755  -1.509  0.00  0.00    +0.039 A 
ATOM      2  C   UNL     1       3.537  -5.630  -0.652  0.00  0.00    +0.039 A 
ATOM      3  C   UNL     1       3.329  -5.799   0.772  0.00  0.00    +0.258 A 
ATOM      4  O   UNL     1       3.408  -4.887   1.593  0.00  0.00    -0.267 OA
ATOM      5  N   UNL     1       3.025  -7.089   1.200  0.00  0.00    -0.275 N 
ATOM      6  H   UNL     1       2.872  -7.216   2.210  0.00  0.00    +0.173 HD
ATOM      7  C   UNL     1       2.908  -8.216   0.408  0.00  0.00    +0.331 A 
ATOM      8  O   UNL     1       2.597  -9.294   0.910  0.00  0.00    -0.246 OA
ATOM      9  N   UNL     1       3.127  -8.029  -0.977  0.00  0.00    -0.273 N 
ENDROOT
BRANCH   2  10
ATOM     10  C   UNL     1       3.744  -4.162  -1.079  0.00  0.00    +0.020 C 
ATOM     11  C   UNL     1       5.182  -3.794  -1.376  0.00  0.00    +0.012 C 
ATOM     12  C   UNL     1       2.695  -3.622  -2.071  0.00  0.00    +0.012 C 
ENDBRANCH   2  10
BRANCH   1  13
ATOM     13  C   UNL     1       3.617  -6.659  -3.036  0.00  0.00    +0.089 C 
BRANCH  13  14
ATOM     14  C   UNL     1       4.671  -7.486  -3.754  0.00  0.00    -0.042 A 
ATOM     15  C   UNL     1       4.311  -8.410  -4.758  0.00  0.00    +0.004 A 
ATOM     16  C   UNL     1       5.283  -9.252  -5.349  0.00  0.00    +0.000 A 
ATOM     17  C   UNL     1       6.626  -9.162  -4.930  0.00  0.00    +0.000 A 
ATOM     18  C   UNL     1       6.994  -8.228  -3.923  0.00  0.00    +0.000 A 
ATOM     19  C   UNL     1       6.009  -7.389  -3.338  0.00  0.00    +0.004 A 
ENDBRANCH  13  14
ENDBRANCH   1  13
BRANCH   9  20
ATOM     20  C   UNL     1       2.939  -9.229  -1.848  0.00  0.00    +0.289 C 
BRANCH  20  21
ATOM     21  O   UNL     1       4.060 -10.091  -1.748  0.00  0.00    -0.355 OA
BRANCH  21  22
ATOM     22  C   UNL     1       3.688 -11.458  -1.812  0.00  0.00    +0.197 C 
BRANCH  22  23
ATOM     23  C   UNL     1       4.604 -12.298  -0.978  0.00  0.00    -0.022 A 
ATOM     24  C   UNL     1       4.150 -13.525  -0.488  0.00  0.00    +0.006 A 
ATOM     25  C   UNL     1       4.956 -14.273   0.394  0.00  0.00    +0.000 A 
ATOM     26  C   UNL     1       6.227 -13.783   0.779  0.00  0.00    +0.000 A 
ATOM     27  C   UNL     1       6.686 -12.544   0.276  0.00  0.00    +0.000 A 
ATOM     28  C   UNL     1       5.870 -11.807  -0.602  0.00  0.00    +0.006 A 
ENDBRANCH  22  23
ENDBRANCH  21  22
ENDBRANCH  20  21
ENDBRANCH   9  20
TORSDOF 7
