REMARK  Name = LIGAND
REMARK  14 active torsions:
REMARK  status: ('A' for Active; 'I' for Inactive)
REMARK    1  A    between atoms: C_1  and  C_9
REMARK    2  A    between atoms: C_5  and  C_9
REMARK    3  A    between atoms: C_9  and  C_10
REMARK    4  A    between atoms: C_9  and  C_12
REMARK    5  A    between atoms: C_10  and  C_16
REMARK    6  A    between atoms: C_10  and  N_18
REMARK    7  A    between atoms: N_20  and  C_22
REMARK    8  A    between atoms: C_26  and  C_30
REMARK    9  A    between atoms: C_30  and  C_37
REMARK   10  A    between atoms: C_30  and  C_40
REMARK   11  A    between atoms: C_32  and  C_35
REMARK   12  A    between atoms: C_32  and  N_48
REMARK   13  A    between atoms: C_35  and  C_37
REMARK   14  A    between atoms: C_35  and  C_44
REMARK                            x       y       z     vdW  Elec       q    Type
REMARK                         _______ _______ _______ _____ _____    ______ ____
ROOT
ATOM      1  N   UNL     1       3.688   7.265  -1.890  0.00  0.00    -0.303 N 
ATOM      2  H   UNL     1       3.195   6.943  -2.735  0.00  0.00    +0.149 HD
ATOM      3  C   UNL     1       4.949   7.729  -2.031  0.00  0.00    +0.218 C 
ATOM      4  O   UNL     1       5.635   8.146  -1.066  0.00  0.00    -0.275 OA
ENDROOT
BRANCH   1   5
ATOM      5  C   UNL     1       2.957   7.191  -0.569  0.00  0.00    +0.164 C 
BRANCH   5   6
ATOM      6  C   UNL     1       1.825   6.080  -0.738  0.00  0.00    +0.234 C 
ATOM      7  N   UNL     1       1.762   5.177   0.279  0.00  0.00    -0.317 N 
ATOM      8  H   UNL     1       2.430   5.282   1.056  0.00  0.00    +0.148 HD
ATOM      9  C   UNL     1       0.799   4.053   0.343  0.00  0.00    +0.128 C 
ATOM     10  O   UNL     1       1.077   6.062  -1.740  0.00  0.00    -0.274 OA
ENDBRANCH   5   6
BRANCH   5  12
ATOM     11  C   UNL     1       3.147   9.104   1.196  0.00  0.00    +0.013 C 
ATOM     12  C   UNL     1       2.416   8.635  -0.091  0.00  0.00    -0.011 C 
ATOM     13  C   UNL     1       0.866   8.628   0.198  0.00  0.00    +0.013 C 
ATOM     14  C   UNL     1       2.647   9.781  -1.151  0.00  0.00    +0.013 C 
ENDBRANCH   5  12
ENDBRANCH   1   5
BRANCH   3  15
ATOM     15  C   UNL     1       5.553   7.737  -3.465  0.00  0.00    +0.093 C 
BRANCH  15  16
ATOM     16  C   UNL     1       4.493   8.148  -4.567  0.00  0.00    +0.017 C 
BRANCH  16  17
ATOM     17  C   UNL     1       4.467   9.594  -5.121  0.00  0.00    -0.016 C 
ATOM     18  C   UNL     1       4.246   9.547  -6.622  0.00  0.00    +0.007 C 
ATOM     19  C   UNL     1       5.848  10.264  -4.941  0.00  0.00    +0.007 C 
ENDBRANCH  16  17
ENDBRANCH  15  16
BRANCH  15  20
ATOM     20  C   UNL     1       6.057   6.266  -3.707  0.00  0.00    +0.125 C 
BRANCH  20  21
ATOM     21  N   UNL     1       7.491   6.176  -3.964  0.00  0.00    -0.298 N 
ATOM     22  O   UNL     1       7.866   5.390  -4.905  0.00  0.00    -0.421 OA
ATOM     23  C   UNL     1       8.420   6.844  -3.276  0.00  0.00    +0.131 C 
ATOM     24  O   UNL     1       9.585   6.760  -3.472  0.00  0.00    -0.546 OA
ENDBRANCH  20  21
ENDBRANCH  15  20
ENDBRANCH   3  15
TORSDOF 8
