REMARK  Name = LIGAND
REMARK  14 active torsions:
REMARK  status: ('A' for Active; 'I' for Inactive)
REMARK    1  A    between atoms: C_1  and  C_9
REMARK    2  A    between atoms: C_5  and  C_9
REMARK    3  A    between atoms: C_9  and  C_10
REMARK    4  A    between atoms: C_9  and  C_12
REMARK    5  A    between atoms: C_10  and  C_16
REMARK    6  A    between atoms: C_10  and  N_18
REMARK    7  A    between atoms: N_20  and  C_22
REMARK    8  A    between atoms: C_26  and  C_30
REMARK    9  A    between atoms: C_30  and  C_37
REMARK   10  A    between atoms: C_30  and  C_40
REMARK   11  A    between atoms: C_32  and  C_35
REMARK   12  A    between atoms: C_32  and  N_48
REMARK   13  A    between atoms: C_35  and  C_37
REMARK   14  A    between atoms: C_35  and  C_44
REMARK                            x       y       z     vdW  Elec       q    Type
REMARK                         _______ _______ _______ _____ _____    ______ ____
ROOT
ATOM      1  N   UNL     1      -1.865  -4.584  -5.405  0.00  0.00    -0.303 N 
ATOM      2  H   UNL     1      -1.606  -3.587  -5.391  0.00  0.00    +0.149 HD
ATOM      3  C   UNL     1      -1.705  -5.264  -6.560  0.00  0.00    +0.218 C 
ATOM      4  O   UNL     1      -1.988  -6.481  -6.681  0.00  0.00    -0.275 OA
ENDROOT
BRANCH   1   5
ATOM      5  C   UNL     1      -2.401  -5.196  -4.130  0.00  0.00    +0.164 C 
BRANCH   5   6
ATOM      6  C   UNL     1      -3.970  -4.911  -4.115  0.00  0.00    +0.234 C 
ATOM      7  N   UNL     1      -4.700  -5.805  -3.392  0.00  0.00    -0.317 N 
ATOM      8  H   UNL     1      -4.194  -6.570  -2.924  0.00  0.00    +0.148 HD
ATOM      9  C   UNL     1      -6.172  -5.751  -3.234  0.00  0.00    +0.128 C 
ATOM     10  O   UNL     1      -4.460  -3.941  -4.733  0.00  0.00    -0.274 OA
ENDBRANCH   5   6
BRANCH   5  12
ATOM     11  C   UNL     1      -1.050  -5.862  -1.999  0.00  0.00    +0.013 C 
ATOM     12  C   UNL     1      -1.609  -4.672  -2.824  0.00  0.00    -0.011 C 
ATOM     13  C   UNL     1      -2.524  -3.803  -1.879  0.00  0.00    +0.013 C 
ATOM     14  C   UNL     1      -0.360  -3.767  -3.160  0.00  0.00    +0.013 C 
ENDBRANCH   5  12
ENDBRANCH   1   5
BRANCH   3  15
ATOM     15  C   UNL     1      -1.138  -4.481  -7.781  0.00  0.00    +0.093 C 
BRANCH  15  16
ATOM     16  C   UNL     1      -0.724  -5.437  -8.973  0.00  0.00    +0.017 C 
BRANCH  16  17
ATOM     17  C   UNL     1      -1.814  -6.136  -9.824  0.00  0.00    -0.016 C 
ATOM     18  C   UNL     1      -1.152  -7.128 -10.762  0.00  0.00    +0.007 C 
ATOM     19  C   UNL     1      -2.512  -5.114 -10.750  0.00  0.00    +0.007 C 
ENDBRANCH  16  17
ENDBRANCH  15  16
BRANCH  15  20
ATOM     20  C   UNL     1       0.120  -3.715  -7.228  0.00  0.00    +0.125 C 
BRANCH  20  21
ATOM     21  N   UNL     1       1.374  -4.439  -7.419  0.00  0.00    -0.298 N 
ATOM     22  O   UNL     1       1.651  -5.357  -6.567  0.00  0.00    -0.421 OA
ATOM     23  C   UNL     1       2.238  -4.194  -8.405  0.00  0.00    +0.131 C 
ATOM     24  O   UNL     1       3.263  -4.769  -8.553  0.00  0.00    -0.546 OA
ENDBRANCH  20  21
ENDBRANCH  15  20
ENDBRANCH   3  15
TORSDOF 8
