REMARK  Name = LIGAND
REMARK  14 active torsions:
REMARK  status: ('A' for Active; 'I' for Inactive)
REMARK    1  A    between atoms: C_1  and  C_9
REMARK    2  A    between atoms: C_5  and  C_9
REMARK    3  A    between atoms: C_9  and  C_10
REMARK    4  A    between atoms: C_9  and  C_12
REMARK    5  A    between atoms: C_10  and  C_16
REMARK    6  A    between atoms: C_10  and  N_18
REMARK    7  A    between atoms: N_20  and  C_22
REMARK    8  A    between atoms: C_26  and  C_30
REMARK    9  A    between atoms: C_30  and  C_37
REMARK   10  A    between atoms: C_30  and  C_40
REMARK   11  A    between atoms: C_32  and  C_35
REMARK   12  A    between atoms: C_32  and  N_48
REMARK   13  A    between atoms: C_35  and  C_37
REMARK   14  A    between atoms: C_35  and  C_44
REMARK                            x       y       z     vdW  Elec       q    Type
REMARK                         _______ _______ _______ _____ _____    ______ ____
ROOT
ATOM      1  N   UNL     1      -1.179   0.438  -6.430  0.00  0.00    -0.303 N 
ATOM      2  H   UNL     1      -0.509   1.120  -6.047  0.00  0.00    +0.149 HD
ATOM      3  C   UNL     1      -1.725   0.695  -7.638  0.00  0.00    +0.218 C 
ATOM      4  O   UNL     1      -2.549  -0.073  -8.192  0.00  0.00    -0.275 OA
ENDROOT
BRANCH   1   5
ATOM      5  C   UNL     1      -1.490  -0.791  -5.605  0.00  0.00    +0.164 C 
BRANCH   5   6
ATOM      6  C   UNL     1      -2.616  -0.363  -4.559  0.00  0.00    +0.234 C 
ATOM      7  N   UNL     1      -3.352  -1.397  -4.066  0.00  0.00    -0.317 N 
ATOM      8  H   UNL     1      -3.127  -2.346  -4.396  0.00  0.00    +0.148 HD
ATOM      9  C   UNL     1      -4.454  -1.248  -3.086  0.00  0.00    +0.128 C 
ATOM     10  O   UNL     1      -2.789   0.835  -4.245  0.00  0.00    -0.274 OA
ENDBRANCH   5   6
BRANCH   5  12
ATOM     11  C   UNL     1       0.041  -2.896  -5.414  0.00  0.00    +0.013 C 
ATOM     12  C   UNL     1      -0.164  -1.431  -4.943  0.00  0.00    -0.011 C 
ATOM     13  C   UNL     1      -0.220  -1.423  -3.367  0.00  0.00    +0.013 C 
ATOM     14  C   UNL     1       1.166  -0.673  -5.327  0.00  0.00    +0.013 C 
ENDBRANCH   5  12
ENDBRANCH   1   5
BRANCH   3  15
ATOM     15  C   UNL     1      -1.294   2.008  -8.354  0.00  0.00    +0.093 C 
BRANCH  15  16
ATOM     16  C   UNL     1       0.028   2.626  -7.741  0.00  0.00    +0.017 C 
BRANCH  16  17
ATOM     17  C   UNL     1       1.342   2.621  -8.561  0.00  0.00    -0.016 C 
ATOM     18  C   UNL     1       1.112   3.349  -9.872  0.00  0.00    +0.007 C 
ATOM     19  C   UNL     1       1.719   1.177  -8.965  0.00  0.00    +0.007 C 
ENDBRANCH  16  17
ENDBRANCH  15  16
BRANCH  15  20
ATOM     20  C   UNL     1      -2.504   2.996  -8.162  0.00  0.00    +0.125 C 
BRANCH  20  21
ATOM     21  N   UNL     1      -2.849   3.736  -9.373  0.00  0.00    -0.298 N 
ATOM     22  O   UNL     1      -2.602   3.164 -10.495  0.00  0.00    -0.421 OA
ATOM     23  C   UNL     1      -3.384   4.958  -9.378  0.00  0.00    +0.131 C 
ATOM     24  O   UNL     1      -3.650   5.567 -10.359  0.00  0.00    -0.546 OA
ENDBRANCH  20  21
ENDBRANCH  15  20
ENDBRANCH   3  15
TORSDOF 8
