REMARK  Name = LIGAND
REMARK  8 active torsions:
REMARK  status: ('A' for Active; 'I' for Inactive)
REMARK    1  A    between atoms: C_1  and  C_31
REMARK    2  A    between atoms: N_5  and  C_29
REMARK    3  A    between atoms: C_8  and  C_24
REMARK    4  A    between atoms: O_12  and  C_14
REMARK    5  A    between atoms: C_14  and  C_17
REMARK    6  A    between atoms: C_17  and  C_23
REMARK    7  A    between atoms: N_25  and  C_26
REMARK    8  A    between atoms: C_26  and  C_35
REMARK                            x       y       z     vdW  Elec       q    Type
REMARK                         _______ _______ _______ _____ _____    ______ ____
ROOT
ATOM      1  C   UNL     1       4.122   3.909  -4.719  0.00  0.00    +0.162 C 
ENDROOT
BRANCH   1   6
ATOM      2  C   UNL     1       3.476  -0.888  -7.991  0.00  0.00    +0.088 C 
ATOM      3  C   UNL     1       3.657   0.338  -7.145  0.00  0.00    +0.128 A 
ATOM      4  N   UNL     1       4.922   0.660  -6.608  0.00  0.00    -0.240 NA
ATOM      5  C   UNL     1       5.079   1.817  -5.817  0.00  0.00    +0.121 A 
ATOM      6  C   UNL     1       3.967   2.662  -5.566  0.00  0.00    +0.030 A 
ATOM      7  C   UNL     1       2.709   2.325  -6.107  0.00  0.00    +0.125 A 
ATOM      8  N   UNL     1       2.561   1.175  -6.892  0.00  0.00    -0.218 NA
BRANCH   7   9
ATOM      9  N   UNL     1       1.601   3.149  -5.874  0.00  0.00    -0.343 N 
ATOM     10  H   UNL     1       1.735   4.155  -5.702  0.00  0.00    +0.144 HD
ATOM     11  H   UNL     1       0.652   2.748  -5.875  0.00  0.00    +0.144 HD
ENDBRANCH   7   9
ENDBRANCH   1   6
BRANCH   1  12
ATOM     12  N   UNL     1       4.671   5.159  -5.271  0.00  0.00    -0.340 N 
ATOM     13  C   UNL     1       4.033   6.279  -5.275  0.00  0.00    +0.026 A 
ATOM     14  C   UNL     1       4.754   7.289  -5.832  0.00  0.00    +0.012 A 
ATOM     15  S   UNL     1       6.371   6.727  -6.387  0.00  0.00    -0.082 S 
ATOM     16  C   UNL     1       2.629   6.467  -4.714  0.00  0.00    +0.064 C 
ATOM     17  C   UNL     1       5.836   5.166  -5.773  0.00  0.00    +0.132 A 
BRANCH  14  18
ATOM     18  C   UNL     1       4.311   8.714  -5.978  0.00  0.00    +0.072 C 
BRANCH  18  19
ATOM     19  C   UNL     1       3.444   8.758  -7.262  0.00  0.00    +0.161 C 
BRANCH  19  20
ATOM     20  O   UNL     1       3.836   9.872  -8.041  0.00  0.00    -0.395 OA
ATOM     21  H   UNL     1       3.021  10.235  -8.556  0.00  0.00    +0.209 HD
ENDBRANCH  19  20
ENDBRANCH  18  19
ENDBRANCH  14  18
ENDBRANCH   1  12
TORSDOF 6
