REMARK  Name = LIGAND
REMARK  8 active torsions:
REMARK  status: ('A' for Active; 'I' for Inactive)
REMARK    1  A    between atoms: C_1  and  C_31
REMARK    2  A    between atoms: N_5  and  C_29
REMARK    3  A    between atoms: C_8  and  C_24
REMARK    4  A    between atoms: O_12  and  C_14
REMARK    5  A    between atoms: C_14  and  C_17
REMARK    6  A    between atoms: C_17  and  C_23
REMARK    7  A    between atoms: N_25  and  C_26
REMARK    8  A    between atoms: C_26  and  C_35
REMARK                            x       y       z     vdW  Elec       q    Type
REMARK                         _______ _______ _______ _____ _____    ______ ____
ROOT
ATOM      1  C   UNL     1       2.487   1.949   4.740  0.00  0.00    +0.162 C 
ENDROOT
BRANCH   1   6
ATOM      2  C   UNL     1       1.016   2.622  -0.874  0.00  0.00    +0.088 C 
ATOM      3  C   UNL     1       1.405   2.437   0.562  0.00  0.00    +0.128 A 
ATOM      4  N   UNL     1       2.591   1.750   0.904  0.00  0.00    -0.240 NA
ATOM      5  C   UNL     1       2.945   1.586   2.259  0.00  0.00    +0.121 A 
ATOM      6  C   UNL     1       2.116   2.117   3.281  0.00  0.00    +0.030 A 
ATOM      7  C   UNL     1       0.933   2.797   2.923  0.00  0.00    +0.125 A 
ATOM      8  N   UNL     1       0.588   2.957   1.575  0.00  0.00    -0.218 NA
BRANCH   7   9
ATOM      9  N   UNL     1       0.104   3.332   3.917  0.00  0.00    -0.343 N 
ATOM     10  H   UNL     1       0.482   3.524   4.855  0.00  0.00    +0.144 HD
ATOM     11  H   UNL     1      -0.885   3.533   3.709  0.00  0.00    +0.144 HD
ENDBRANCH   7   9
ENDBRANCH   1   6
BRANCH   1  12
ATOM     12  N   UNL     1       3.037   3.060   5.534  0.00  0.00    -0.340 N 
ATOM     13  C   UNL     1       4.282   3.393   5.531  0.00  0.00    +0.026 A 
ATOM     14  C   UNL     1       4.540   4.456   6.339  0.00  0.00    +0.012 A 
ATOM     15  S   UNL     1       3.051   5.052   7.155  0.00  0.00    -0.082 S 
ATOM     16  C   UNL     1       5.355   2.687   4.711  0.00  0.00    +0.064 C 
ATOM     17  C   UNL     1       2.265   3.749   6.269  0.00  0.00    +0.132 A 
BRANCH  14  18
ATOM     18  C   UNL     1       5.879   5.100   6.549  0.00  0.00    +0.072 C 
BRANCH  18  19
ATOM     19  C   UNL     1       6.164   4.996   8.069  0.00  0.00    +0.161 C 
BRANCH  19  20
ATOM     20  O   UNL     1       6.846   6.162   8.488  0.00  0.00    -0.395 OA
ATOM     21  H   UNL     1       7.805   6.154   8.111  0.00  0.00    +0.209 HD
ENDBRANCH  19  20
ENDBRANCH  18  19
ENDBRANCH  14  18
ENDBRANCH   1  12
TORSDOF 6
