REMARK  Name = LIGAND
REMARK  5 active torsions:
REMARK  status: ('A' for Active; 'I' for Inactive)
REMARK    1  A    between atoms: N_1  and  CA_5
REMARK    2  A    between atoms: CA_5  and  C_7
REMARK    3  A    between atoms: CA_5  and  CB_9
REMARK    4  A    between atoms: CB_9  and  CG_12
REMARK    5  A    between atoms: CZ_21  and  OH_22
REMARK                            x       y       z     vdW  Elec       q    Type
REMARK                         _______ _______ _______ _____ _____    ______ ____
ROOT
ATOM      1  CB  TYR A   1      32.489  -2.116  49.526  0.00  0.00    +0.030 C 
ENDROOT
BRANCH   1   2
ATOM      2  CG  TYR A   1      32.030  -0.715  49.883  0.00  0.00    -0.048 A 
ATOM      3  CD2 TYR A   1      31.317   0.057  48.973  0.00  0.00    +0.007 A 
ATOM      4  CE2 TYR A   1      30.907   1.342  49.273  0.00  0.00    +0.045 A 
ATOM      5  CZ  TYR A   1      31.205   1.827  50.541  0.00  0.00    +0.117 A 
ATOM      6  CE1 TYR A   1      31.857   1.032  51.446  0.00  0.00    +0.045 A 
ATOM      7  CD1 TYR A   1      32.293  -0.224  51.125  0.00  0.00    +0.007 A 
BRANCH   5   8
ATOM      8  OH  TYR A   1      30.815   2.979  50.918  0.00  0.00    -0.507 OA
ATOM      9  HH  TYR A   1      31.588   3.653  50.821  0.00  0.00    +0.292 HD
ENDBRANCH   5   8
ENDBRANCH   1   2
BRANCH   1  10
ATOM     10  CA  TYR A   1      31.378  -3.131  49.255  0.00  0.00    +0.045 C 
BRANCH  10  11
ATOM     11  N   TYR A   1      30.677  -3.370  50.516  0.00  0.00    +0.387 N 
ATOM     12  H1  TYR A   1      31.306  -3.968  51.050  0.00  0.00    -0.089 HD
ATOM     13  H2  TYR A   1      29.916  -4.016  50.351  0.00  0.00    -0.089 HD
ATOM     14  H3  TYR A   1      30.344  -2.600  51.061  0.00  0.00    -0.089 HD
ENDBRANCH  10  11
BRANCH  10  15
ATOM     15  C   TYR A   1      31.967  -4.405  48.694  0.00  0.00    +0.342 C 
ATOM     16  OXT TYR A   1      32.372  -4.316  47.537  0.00  0.00    -0.248 OA
ATOM     17  O   TYR A   1      32.017  -5.492  49.338  0.00  0.00    -0.248 OA
ENDBRANCH  10  15
ENDBRANCH   1  10
TORSDOF 5
