REMARK  Name = LIGAND
REMARK  5 active torsions:
REMARK  status: ('A' for Active; 'I' for Inactive)
REMARK    1  A    between atoms: N_1  and  CA_5
REMARK    2  A    between atoms: CA_5  and  C_7
REMARK    3  A    between atoms: CA_5  and  CB_9
REMARK    4  A    between atoms: CB_9  and  CG_12
REMARK    5  A    between atoms: CZ_21  and  OH_22
REMARK                            x       y       z     vdW  Elec       q    Type
REMARK                         _______ _______ _______ _____ _____    ______ ____
ROOT
ATOM      1  CB  TYR A   1       7.299   2.764   5.802  0.00  0.00    +0.030 C 
ENDROOT
BRANCH   1   2
ATOM      2  CG  TYR A   1       6.086   1.996   6.291  0.00  0.00    -0.048 A 
ATOM      3  CD2 TYR A   1       5.607   2.165   7.585  0.00  0.00    +0.007 A 
ATOM      4  CE2 TYR A   1       4.515   1.460   8.055  0.00  0.00    +0.045 A 
ATOM      5  CZ  TYR A   1       3.886   0.594   7.168  0.00  0.00    +0.117 A 
ATOM      6  CE1 TYR A   1       4.335   0.482   5.879  0.00  0.00    +0.045 A 
ATOM      7  CD1 TYR A   1       5.441   1.155   5.437  0.00  0.00    +0.007 A 
BRANCH   5   8
ATOM      8  OH  TYR A   1       2.840  -0.051   7.502  0.00  0.00    -0.507 OA
ATOM      9  HH  TYR A   1       2.179   0.584   7.971  0.00  0.00    +0.292 HD
ENDBRANCH   5   8
ENDBRANCH   1   2
BRANCH   1  10
ATOM     10  CA  TYR A   1       7.123   3.515   4.482  0.00  0.00    +0.045 C 
BRANCH  10  11
ATOM     11  N   TYR A   1       8.227   3.133   3.603  0.00  0.00    +0.387 N 
ATOM     12  H1  TYR A   1       8.961   3.812   3.802  0.00  0.00    -0.089 HD
ATOM     13  H2  TYR A   1       7.996   3.396   2.653  0.00  0.00    -0.089 HD
ATOM     14  H3  TYR A   1       8.576   2.195   3.610  0.00  0.00    -0.089 HD
ENDBRANCH  10  11
BRANCH  10  15
ATOM     15  C   TYR A   1       7.100   5.005   4.734  0.00  0.00    +0.342 C 
ATOM     16  OXT TYR A   1       8.210   5.528   4.818  0.00  0.00    -0.248 OA
ATOM     17  O   TYR A   1       6.035   5.671   4.882  0.00  0.00    -0.248 OA
ENDBRANCH  10  15
ENDBRANCH   1  10
TORSDOF 5
