REMARK  Name = LIGAND
REMARK  5 active torsions:
REMARK  status: ('A' for Active; 'I' for Inactive)
REMARK    1  A    between atoms: N_1  and  CA_5
REMARK    2  A    between atoms: CA_5  and  C_7
REMARK    3  A    between atoms: CA_5  and  CB_9
REMARK    4  A    between atoms: CB_9  and  CG_12
REMARK    5  A    between atoms: CZ_21  and  OH_22
REMARK                            x       y       z     vdW  Elec       q    Type
REMARK                         _______ _______ _______ _____ _____    ______ ____
ROOT
ATOM      1  CB  TYR A   1      -1.682  -5.307  -6.767  0.00  0.00    +0.030 C 
ENDROOT
BRANCH   1   2
ATOM      2  CG  TYR A   1      -2.128  -6.715  -7.111  0.00  0.00    -0.048 A 
ATOM      3  CD2 TYR A   1      -1.968  -7.222  -8.396  0.00  0.00    +0.007 A 
ATOM      4  CE2 TYR A   1      -2.385  -8.496  -8.732  0.00  0.00    +0.045 A 
ATOM      5  CZ  TYR A   1      -2.943  -9.272  -7.723  0.00  0.00    +0.117 A 
ATOM      6  CE1 TYR A   1      -3.039  -8.779  -6.449  0.00  0.00    +0.045 A 
ATOM      7  CD1 TYR A   1      -2.660  -7.503  -6.136  0.00  0.00    +0.007 A 
BRANCH   5   8
ATOM      8  OH  TYR A   1      -3.301 -10.475  -7.935  0.00  0.00    -0.507 OA
ATOM      9  HH  TYR A   1      -2.696 -11.114  -7.399  0.00  0.00    +0.292 HD
ENDBRANCH   5   8
ENDBRANCH   1   2
BRANCH   1  10
ATOM     10  CA  TYR A   1      -1.797  -4.914  -5.294  0.00  0.00    +0.045 C 
BRANCH  10  11
ATOM     11  N   TYR A   1      -2.190  -3.506  -5.239  0.00  0.00    +0.387 N 
ATOM     12  H1  TYR A   1      -3.047  -3.457  -5.789  0.00  0.00    -0.089 HD
ATOM     13  H2  TYR A   1      -1.569  -2.969  -5.829  0.00  0.00    -0.089 HD
ATOM     14  H3  TYR A   1      -2.288  -3.045  -4.356  0.00  0.00    -0.089 HD
ENDBRANCH  10  11
BRANCH  10  15
ATOM     15  C   TYR A   1      -0.480  -5.153  -4.591  0.00  0.00    +0.342 C 
ATOM     16  OXT TYR A   1       0.502  -5.150  -5.329  0.00  0.00    -0.248 OA
ATOM     17  O   TYR A   1      -0.383  -5.373  -3.350  0.00  0.00    -0.248 OA
ENDBRANCH  10  15
ENDBRANCH   1  10
TORSDOF 5
