REMARK  Name = LIGAND
REMARK  5 active torsions:
REMARK  status: ('A' for Active; 'I' for Inactive)
REMARK    1  A    between atoms: N_1  and  CA_5
REMARK    2  A    between atoms: CA_5  and  C_7
REMARK    3  A    between atoms: CA_5  and  CB_9
REMARK    4  A    between atoms: CB_9  and  CG_12
REMARK    5  A    between atoms: CZ_21  and  OH_22
REMARK                            x       y       z     vdW  Elec       q    Type
REMARK                         _______ _______ _______ _____ _____    ______ ____
ROOT
ATOM      1  CB  TYR A   1      -2.102  -2.243  -3.205  0.00  0.00    +0.030 C 
ENDROOT
BRANCH   1   2
ATOM      2  CG  TYR A   1      -0.596  -2.097  -3.311  0.00  0.00    -0.048 A 
ATOM      3  CD2 TYR A   1      -0.018  -0.882  -3.660  0.00  0.00    +0.007 A 
ATOM      4  CE2 TYR A   1       1.351  -0.736  -3.780  0.00  0.00    +0.045 A 
ATOM      5  CZ  TYR A   1       2.138  -1.847  -3.503  0.00  0.00    +0.117 A 
ATOM      6  CE1 TYR A   1       1.556  -3.020  -3.103  0.00  0.00    +0.045 A 
ATOM      7  CD1 TYR A   1       0.198  -3.166  -3.026  0.00  0.00    +0.007 A 
BRANCH   5   8
ATOM      8  OH  TYR A   1       3.410  -1.782  -3.535  0.00  0.00    -0.507 OA
ATOM      9  HH  TYR A   1       3.802  -2.734  -3.578  0.00  0.00    +0.292 HD
ENDBRANCH   5   8
ENDBRANCH   1   2
BRANCH   1  10
ATOM     10  CA  TYR A   1      -2.614  -3.647  -2.885  0.00  0.00    +0.045 C 
BRANCH  10  11
ATOM     11  N   TYR A   1      -2.446  -4.466  -4.086  0.00  0.00    +0.387 N 
ATOM     12  H1  TYR A   1      -3.148  -4.116  -4.735  0.00  0.00    -0.089 HD
ATOM     13  H2  TYR A   1      -2.814  -5.391  -3.906  0.00  0.00    -0.089 HD
ATOM     14  H3  TYR A   1      -1.547  -4.547  -4.518  0.00  0.00    -0.089 HD
ENDBRANCH  10  11
BRANCH  10  15
ATOM     15  C   TYR A   1      -4.060  -3.584  -2.452  0.00  0.00    +0.342 C 
ATOM     16  OXT TYR A   1      -4.647  -4.664  -2.466  0.00  0.00    -0.248 OA
ATOM     17  O   TYR A   1      -4.645  -2.511  -2.128  0.00  0.00    -0.248 OA
ENDBRANCH  10  15
ENDBRANCH   1  10
TORSDOF 5
