REMARK  Name = LIGAND
REMARK  6 active torsions:
REMARK  status: ('A' for Active; 'I' for Inactive)
REMARK    1  A    between atoms: C_1  and  S_15
REMARK    2  A    between atoms: C_4  and  C_11
REMARK    3  A    between atoms: S_15  and  N_16
REMARK    4  A    between atoms: N_16  and  C_18
REMARK    5  A    between atoms: C_18  and  C_20
REMARK    6  A    between atoms: C_18  and  C_27
REMARK                            x       y       z     vdW  Elec       q    Type
REMARK                         _______ _______ _______ _____ _____    ______ ____
ROOT
ATOM      1  N   UNL     1      10.439  17.790  26.514  0.00  0.00    -0.180 NA
ATOM      2  H   UNL     1       9.997  16.876  26.690  0.00  0.00    +0.149 HD
ENDROOT
BRANCH   1   3
ATOM      3  S   UNL     1       9.470  19.196  26.221  0.00  0.00    +0.059 S 
ATOM      4  O   UNL     1       8.179  18.742  25.731  0.00  0.00    -0.153 OA
ATOM      5  O   UNL     1      10.362  19.962  25.420  0.00  0.00    -0.153 OA
BRANCH   3   6
ATOM      6  C   UNL     1       9.227  20.017  27.768  0.00  0.00    +0.106 A 
ATOM      7  C   UNL     1       9.947  21.215  28.039  0.00  0.00    +0.031 A 
ATOM      8  C   UNL     1       9.737  21.895  29.231  0.00  0.00    +0.040 A 
ATOM      9  C   UNL     1       8.762  21.371  30.150  0.00  0.00    +0.126 A 
ATOM     10  F   UNL     1       8.523  22.066  31.274  0.00  0.00    -0.205 F 
ATOM     11  C   UNL     1       8.050  20.167  29.921  0.00  0.00    -0.013 A 
ATOM     12  C   UNL     1       7.032  19.658  30.907  0.00  0.00    +0.047 C 
ATOM     13  C   UNL     1       8.293  19.475  28.707  0.00  0.00    +0.034 A 
ENDBRANCH   3   6
ENDBRANCH   1   3
BRANCH   1  14
ATOM     14  C   UNL     1      11.899  17.924  26.507  0.00  0.00    +0.132 C 
BRANCH  14  15
ATOM     15  C   UNL     1      12.671  16.626  26.200  0.00  0.00    +0.018 C 
ATOM     16  C   UNL     1      14.210  16.748  26.305  0.00  0.00    +0.033 C 
ATOM     17  C   UNL     1      14.942  15.430  25.993  0.00  0.00    +0.160 C 
ATOM     18  O   UNL     1      14.542  14.927  24.700  0.00  0.00    -0.380 OA
ATOM     19  C   UNL     1      13.160  14.664  24.562  0.00  0.00    +0.160 C 
ATOM     20  C   UNL     1      12.371  15.942  24.822  0.00  0.00    +0.033 C 
ENDBRANCH  14  15
BRANCH  14  21
ATOM     21  C   UNL     1      12.469  18.438  27.846  0.00  0.00    +0.075 C 
ATOM     22  O   UNL     1      12.160  17.999  28.917  0.00  0.00    -0.540 OA
ATOM     23  N   UNL     1      13.390  19.438  27.723  0.00  0.00    -0.310 N 
ATOM     24  H   UNL     1      13.649  19.803  26.795  0.00  0.00    +0.155 HD
ATOM     25  O   UNL     1      13.969  19.952  28.873  0.00  0.00    -0.423 OA
ENDBRANCH  14  21
ENDBRANCH   1  14
TORSDOF 5
