REMARK  Name = LIGAND
REMARK  6 active torsions:
REMARK  status: ('A' for Active; 'I' for Inactive)
REMARK    1  A    between atoms: C_1  and  S_15
REMARK    2  A    between atoms: C_4  and  C_11
REMARK    3  A    between atoms: S_15  and  N_16
REMARK    4  A    between atoms: N_16  and  C_18
REMARK    5  A    between atoms: C_18  and  C_20
REMARK    6  A    between atoms: C_18  and  C_27
REMARK                            x       y       z     vdW  Elec       q    Type
REMARK                         _______ _______ _______ _____ _____    ______ ____
ROOT
ATOM      1  N   UNL     1      -5.859  -7.403  -2.432  0.00  0.00    -0.180 NA
ATOM      2  H   UNL     1      -5.740  -8.407  -2.632  0.00  0.00    +0.149 HD
ENDROOT
BRANCH   1   3
ATOM      3  S   UNL     1      -6.219  -6.861  -0.826  0.00  0.00    +0.059 S 
ATOM      4  O   UNL     1      -6.877  -5.570  -0.939  0.00  0.00    -0.153 OA
ATOM      5  O   UNL     1      -4.946  -7.016  -0.210  0.00  0.00    -0.153 OA
BRANCH   3   6
ATOM      6  C   UNL     1      -7.355  -8.011  -0.109  0.00  0.00    +0.106 A 
ATOM      7  C   UNL     1      -8.476  -7.518   0.617  0.00  0.00    +0.031 A 
ATOM      8  C   UNL     1      -9.401  -8.406   1.150  0.00  0.00    +0.040 A 
ATOM      9  C   UNL     1      -9.204  -9.812   0.920  0.00  0.00    +0.126 A 
ATOM     10  F   UNL     1     -10.134 -10.660   1.390  0.00  0.00    -0.205 F 
ATOM     11  C   UNL     1      -8.085 -10.334   0.226  0.00  0.00    -0.013 A 
ATOM     12  C   UNL     1      -7.921 -11.814   0.001  0.00  0.00    +0.047 C 
ATOM     13  C   UNL     1      -7.140  -9.413  -0.294  0.00  0.00    +0.034 A 
ENDBRANCH   3   6
ENDBRANCH   1   3
BRANCH   1  14
ATOM     14  C   UNL     1      -5.728  -6.408  -3.501  0.00  0.00    +0.132 C 
BRANCH  14  15
ATOM     15  C   UNL     1      -6.241  -6.863  -4.881  0.00  0.00    +0.018 C 
ATOM     16  C   UNL     1      -7.745  -6.600  -5.131  0.00  0.00    +0.033 C 
ATOM     17  C   UNL     1      -8.216  -7.066  -6.521  0.00  0.00    +0.160 C 
ATOM     18  O   UNL     1      -7.886  -8.457  -6.722  0.00  0.00    -0.380 OA
ATOM     19  C   UNL     1      -6.509  -8.763  -6.638  0.00  0.00    +0.160 C 
ATOM     20  C   UNL     1      -5.980  -8.360  -5.267  0.00  0.00    +0.033 C 
ENDBRANCH  14  15
BRANCH  14  21
ATOM     21  C   UNL     1      -4.272  -5.951  -3.730  0.00  0.00    +0.075 C 
ATOM     22  O   UNL     1      -3.344  -6.314  -3.065  0.00  0.00    -0.540 OA
ATOM     23  N   UNL     1      -4.104  -5.101  -4.785  0.00  0.00    -0.310 N 
ATOM     24  H   UNL     1      -4.911  -4.800  -5.351  0.00  0.00    +0.155 HD
ATOM     25  O   UNL     1      -2.827  -4.650  -5.077  0.00  0.00    -0.423 OA
ENDBRANCH  14  21
ENDBRANCH   1  14
TORSDOF 5
