REMARK  Name = LIGAND
REMARK  6 active torsions:
REMARK  status: ('A' for Active; 'I' for Inactive)
REMARK    1  A    between atoms: C_1  and  S_15
REMARK    2  A    between atoms: C_4  and  C_11
REMARK    3  A    between atoms: S_15  and  N_16
REMARK    4  A    between atoms: N_16  and  C_18
REMARK    5  A    between atoms: C_18  and  C_20
REMARK    6  A    between atoms: C_18  and  C_27
REMARK                            x       y       z     vdW  Elec       q    Type
REMARK                         _______ _______ _______ _____ _____    ______ ____
ROOT
ATOM      1  N   UNL     1      -3.216   5.630   6.586  0.00  0.00    -0.180 NA
ATOM      2  H   UNL     1      -4.220   5.554   6.366  0.00  0.00    +0.149 HD
ENDROOT
BRANCH   1   3
ATOM      3  S   UNL     1      -2.692   5.990   8.198  0.00  0.00    +0.059 S 
ATOM      4  O   UNL     1      -2.414   7.416   8.257  0.00  0.00    -0.153 OA
ATOM      5  O   UNL     1      -1.676   5.009   8.364  0.00  0.00    -0.153 OA
BRANCH   3   6
ATOM      6  C   UNL     1      -4.032   5.633   9.295  0.00  0.00    +0.106 A 
ATOM      7  C   UNL     1      -5.294   5.262   8.751  0.00  0.00    +0.031 A 
ATOM      8  C   UNL     1      -6.345   4.937   9.598  0.00  0.00    +0.040 A 
ATOM      9  C   UNL     1      -6.106   4.959  11.017  0.00  0.00    +0.126 A 
ATOM     10  F   UNL     1      -7.110   4.587  11.828  0.00  0.00    -0.205 F 
ATOM     11  C   UNL     1      -4.869   5.350  11.589  0.00  0.00    -0.013 A 
ATOM     12  C   UNL     1      -4.660   5.352  13.080  0.00  0.00    +0.047 C 
ATOM     13  C   UNL     1      -3.814   5.699  10.707  0.00  0.00    +0.034 A 
ENDBRANCH   3   6
ENDBRANCH   1   3
BRANCH   1  14
ATOM     14  C   UNL     1      -2.206   5.434   5.542  0.00  0.00    +0.132 C 
BRANCH  14  15
ATOM     15  C   UNL     1      -2.649   5.842   4.123  0.00  0.00    +0.018 C 
ATOM     16  C   UNL     1      -3.140   7.304   3.993  0.00  0.00    +0.033 C 
ATOM     17  C   UNL     1      -3.570   7.670   2.561  0.00  0.00    +0.160 C 
ATOM     18  O   UNL     1      -4.563   6.738   2.080  0.00  0.00    -0.380 OA
ATOM     19  C   UNL     1      -4.147   5.387   2.044  0.00  0.00    +0.160 C 
ATOM     20  C   UNL     1      -3.740   4.944   3.444  0.00  0.00    +0.033 C 
ENDBRANCH  14  15
BRANCH  14  21
ATOM     21  C   UNL     1      -1.730   3.971   5.422  0.00  0.00    +0.075 C 
ATOM     22  O   UNL     1      -2.427   3.021   5.637  0.00  0.00    -0.540 OA
ATOM     23  N   UNL     1      -0.432   3.829   5.024  0.00  0.00    -0.310 N 
ATOM     24  H   UNL     1       0.155   4.655   4.839  0.00  0.00    +0.155 HD
ATOM     25  O   UNL     1       0.080   2.549   4.874  0.00  0.00    -0.423 OA
ENDBRANCH  14  21
ENDBRANCH   1  14
TORSDOF 5
