REMARK  Name = LIGAND
REMARK  6 active torsions:
REMARK  status: ('A' for Active; 'I' for Inactive)
REMARK    1  A    between atoms: C_1  and  S_15
REMARK    2  A    between atoms: C_4  and  C_11
REMARK    3  A    between atoms: S_15  and  N_16
REMARK    4  A    between atoms: N_16  and  C_18
REMARK    5  A    between atoms: C_18  and  C_20
REMARK    6  A    between atoms: C_18  and  C_27
REMARK                            x       y       z     vdW  Elec       q    Type
REMARK                         _______ _______ _______ _____ _____    ______ ____
ROOT
ATOM      1  N   UNL     1      -2.595  -2.937   0.190  0.00  0.00    -0.180 NA
ATOM      2  H   UNL     1      -1.986  -2.728  -0.614  0.00  0.00    +0.149 HD
ENDROOT
BRANCH   1   3
ATOM      3  S   UNL     1      -2.953  -4.576   0.622  0.00  0.00    +0.059 S 
ATOM      4  O   UNL     1      -2.072  -4.940   1.720  0.00  0.00    -0.153 OA
ATOM      5  O   UNL     1      -2.878  -5.202  -0.653  0.00  0.00    -0.153 OA
BRANCH   3   6
ATOM      6  C   UNL     1      -4.623  -4.631   1.199  0.00  0.00    +0.106 A 
ATOM      7  C   UNL     1      -4.879  -5.000   2.550  0.00  0.00    +0.031 A 
ATOM      8  C   UNL     1      -6.182  -5.008   3.031  0.00  0.00    +0.040 A 
ATOM      9  C   UNL     1      -7.238  -4.607   2.140  0.00  0.00    +0.126 A 
ATOM     10  F   UNL     1      -8.487  -4.561   2.630  0.00  0.00    -0.205 F 
ATOM     11  C   UNL     1      -7.018  -4.261   0.784  0.00  0.00    -0.013 A 
ATOM     12  C   UNL     1      -8.152  -3.839  -0.112  0.00  0.00    +0.047 C 
ATOM     13  C   UNL     1      -5.683  -4.279   0.304  0.00  0.00    +0.034 A 
ENDBRANCH   3   6
ENDBRANCH   1   3
BRANCH   1  14
ATOM     14  C   UNL     1      -3.176  -1.853   0.988  0.00  0.00    +0.132 C 
BRANCH  14  15
ATOM     15  C   UNL     1      -4.551  -1.353   0.506  0.00  0.00    +0.018 C 
ATOM     16  C   UNL     1      -4.780  -1.458  -1.021  0.00  0.00    +0.033 C 
ATOM     17  C   UNL     1      -6.166  -0.951  -1.459  0.00  0.00    +0.160 C 
ATOM     18  O   UNL     1      -6.380   0.397  -0.987  0.00  0.00    -0.380 OA
ATOM     19  C   UNL     1      -6.317   0.556   0.416  0.00  0.00    +0.160 C 
ATOM     20  C   UNL     1      -4.950   0.106   0.918  0.00  0.00    +0.033 C 
ENDBRANCH  14  15
BRANCH  14  21
ATOM     21  C   UNL     1      -2.279  -0.598   1.053  0.00  0.00    +0.075 C 
ATOM     22  O   UNL     1      -2.032   0.097   0.110  0.00  0.00    -0.540 OA
ATOM     23  N   UNL     1      -1.792  -0.314   2.297  0.00  0.00    -0.310 N 
ATOM     24  H   UNL     1      -2.016  -0.919   3.100  0.00  0.00    +0.155 HD
ATOM     25  O   UNL     1      -0.989   0.805   2.455  0.00  0.00    -0.423 OA
ENDBRANCH  14  21
ENDBRANCH   1  14
TORSDOF 5
