REMARK  Name = LIGAND
REMARK  11 active torsions:
REMARK  status: ('A' for Active; 'I' for Inactive)
REMARK    1  A    between atoms: C_1  and  N_2
REMARK    2  A    between atoms: C_6  and  C_7
REMARK    3  A    between atoms: C_7  and  C_8
REMARK    4  A    between atoms: C_7  and  N_13
REMARK    5  A    between atoms: C_8  and  C_9
REMARK    6  A    between atoms: C_8  and  C_11
REMARK    7  A    between atoms: C_9  and  C_10
REMARK    8  A    between atoms: C_11  and  C_12
REMARK    9  A    between atoms: C_14  and  C_15
REMARK   10  A    between atoms: C_17  and  O_18
REMARK   11  A    between atoms: C_19  and  C_20
REMARK                            x       y       z     vdW  Elec       q    Type
REMARK                         _______ _______ _______ _____ _____    ______ ____
ROOT
ATOM      1  C   UNL     1      24.646  16.555  63.153  0.00  0.00    +0.153 C 
ATOM      2  C   UNL     1      23.502  17.419  63.755  0.00  0.00    +0.058 C 
ATOM      3  C   UNL     1      24.218  18.397  64.721  0.00  0.00    +0.134 C 
ATOM      4  C   UNL     1      25.678  18.547  64.173  0.00  0.00    +0.137 C 
ATOM      5  C   UNL     1      25.723  17.647  62.888  0.00  0.00    +0.076 C 
ENDROOT
BRANCH   1   6
ATOM      6  N   UNL     1      24.274  15.944  61.877  0.00  0.00    -0.276 N 
ATOM      7  H   UNL     1      24.321  16.497  61.009  0.00  0.00    +0.258 HD
ATOM      8  C   UNL     1      23.888  14.717  61.837  0.00  0.00    +0.341 C 
ATOM      9  N   UNL     1      23.592  14.165  60.612  0.00  0.00    -0.292 N 
ATOM     10  H   UNL     1      23.682  14.732  59.757  0.00  0.00    +0.255 HD
ATOM     11  H   UNL     1      23.281  13.185  60.550  0.00  0.00    +0.255 HD
ATOM     12  N   UNL     1      23.688  13.898  62.917  0.00  0.00    -0.292 N 
ATOM     13  H   UNL     1      23.849  14.254  63.870  0.00  0.00    +0.255 HD
ATOM     14  H   UNL     1      23.377  12.926  62.776  0.00  0.00    +0.255 HD
ENDBRANCH   1   6
BRANCH   3  15
ATOM     15  C   UNL     1      23.485  19.692  64.887  0.00  0.00    +0.362 C 
ATOM     16  O   UNL     1      24.204  20.812  64.797  0.00  0.00    -0.246 OA
ATOM     17  O   UNL     1      22.266  19.776  65.034  0.00  0.00    -0.246 OA
ENDBRANCH   3  15
BRANCH   4  18
ATOM     18  O   UNL     1      26.586  17.991  65.166  0.00  0.00    -0.391 OA
ATOM     19  H   UNL     1      26.430  18.454  66.073  0.00  0.00    +0.210 HD
ENDBRANCH   4  18
BRANCH   5  20
ATOM     20  C   UNL     1      27.170  17.126  62.575  0.00  0.00    +0.085 C 
BRANCH  20  21
ATOM     21  N   UNL     1      27.156  16.263  61.386  0.00  0.00    -0.312 N 
ATOM     22  H   UNL     1      27.063  16.681  60.449  0.00  0.00    +0.149 HD
ATOM     23  C   UNL     1      27.266  14.913  61.519  0.00  0.00    +0.210 C 
ATOM     24  O   UNL     1      27.432  14.315  62.572  0.00  0.00    -0.276 OA
ATOM     25  C   UNL     1      27.180  14.066  60.263  0.00  0.00    +0.109 C 
ENDBRANCH  20  21
BRANCH  20  26
ATOM     26  C   UNL     1      28.192  18.318  62.382  0.00  0.00    +0.009 C 
BRANCH  26  27
ATOM     27  C   UNL     1      29.624  17.709  62.203  0.00  0.00    +0.002 C 
ATOM     28  C   UNL     1      30.108  16.842  63.387  0.00  0.00    +0.004 C 
ENDBRANCH  26  27
BRANCH  26  29
ATOM     29  C   UNL     1      27.785  19.251  61.201  0.00  0.00    +0.002 C 
ATOM     30  C   UNL     1      28.434  20.654  61.162  0.00  0.00    +0.004 C 
ENDBRANCH  26  29
ENDBRANCH  20  26
ENDBRANCH   5  20
TORSDOF 8
