REMARK  Name = LIGAND
REMARK  11 active torsions:
REMARK  status: ('A' for Active; 'I' for Inactive)
REMARK    1  A    between atoms: C_1  and  N_2
REMARK    2  A    between atoms: C_6  and  C_7
REMARK    3  A    between atoms: C_7  and  C_8
REMARK    4  A    between atoms: C_7  and  N_13
REMARK    5  A    between atoms: C_8  and  C_9
REMARK    6  A    between atoms: C_8  and  C_11
REMARK    7  A    between atoms: C_9  and  C_10
REMARK    8  A    between atoms: C_11  and  C_12
REMARK    9  A    between atoms: C_14  and  C_15
REMARK   10  A    between atoms: C_17  and  O_18
REMARK   11  A    between atoms: C_19  and  C_20
REMARK                            x       y       z     vdW  Elec       q    Type
REMARK                         _______ _______ _______ _____ _____    ______ ____
ROOT
ATOM      1  C   UNL     1       1.341   2.668   1.736  0.00  0.00    +0.153 C 
ATOM      2  C   UNL     1       2.748   3.329   1.737  0.00  0.00    +0.058 C 
ATOM      3  C   UNL     1       3.694   2.236   1.177  0.00  0.00    +0.134 C 
ATOM      4  C   UNL     1       2.798   1.315   0.280  0.00  0.00    +0.137 C 
ATOM      5  C   UNL     1       1.363   1.946   0.357  0.00  0.00    +0.076 C 
ENDROOT
BRANCH   1   6
ATOM      6  N   UNL     1       0.260   3.654   1.731  0.00  0.00    -0.276 N 
ATOM      7  H   UNL     1      -0.233   3.873   0.853  0.00  0.00    +0.258 HD
ATOM      8  C   UNL     1      -0.076   4.248   2.822  0.00  0.00    +0.341 C 
ATOM      9  N   UNL     1      -1.129   5.134   2.785  0.00  0.00    -0.292 N 
ATOM     10  H   UNL     1      -1.626   5.306   1.900  0.00  0.00    +0.255 HD
ATOM     11  H   UNL     1      -1.420   5.623   3.644  0.00  0.00    +0.255 HD
ATOM     12  N   UNL     1       0.551   4.126   4.034  0.00  0.00    -0.292 N 
ATOM     13  H   UNL     1       1.373   3.513   4.129  0.00  0.00    +0.255 HD
ATOM     14  H   UNL     1       0.200   4.648   4.850  0.00  0.00    +0.255 HD
ENDBRANCH   1   6
BRANCH   3  15
ATOM     15  C   UNL     1       4.890   2.803   0.478  0.00  0.00    +0.362 C 
ATOM     16  O   UNL     1       5.945   3.111   1.233  0.00  0.00    -0.246 OA
ATOM     17  O   UNL     1       4.971   2.936  -0.743  0.00  0.00    -0.246 OA
ENDBRANCH   3  15
BRANCH   4  18
ATOM     18  O   UNL     1       2.762  -0.005   0.893  0.00  0.00    -0.391 OA
ATOM     19  H   UNL     1       1.865  -0.133   1.383  0.00  0.00    +0.210 HD
ENDBRANCH   4  18
BRANCH   5  20
ATOM     20  C   UNL     1       0.231   0.886   0.117  0.00  0.00    +0.085 C 
BRANCH  20  21
ATOM     21  N   UNL     1      -0.169   0.268   1.388  0.00  0.00    -0.312 N 
ATOM     22  H   UNL     1       0.076   0.723   2.280  0.00  0.00    +0.149 HD
ATOM     23  C   UNL     1      -0.861  -0.903   1.392  0.00  0.00    +0.210 C 
ATOM     24  O   UNL     1      -1.248  -1.502   0.399  0.00  0.00    -0.276 OA
ATOM     25  C   UNL     1      -1.192  -1.529   2.734  0.00  0.00    +0.109 C 
ENDBRANCH  20  21
BRANCH  20  26
ATOM     26  C   UNL     1      -1.022   1.522  -0.608  0.00  0.00    +0.009 C 
BRANCH  26  27
ATOM     27  C   UNL     1      -1.361   0.644  -1.860  0.00  0.00    +0.002 C 
ATOM     28  C   UNL     1      -1.483   1.429  -3.185  0.00  0.00    +0.004 C 
ENDBRANCH  26  27
BRANCH  26  29
ATOM     29  C   UNL     1      -2.236   1.684   0.357  0.00  0.00    +0.002 C 
ATOM     30  C   UNL     1      -3.641   1.425  -0.235  0.00  0.00    +0.004 C 
ENDBRANCH  26  29
ENDBRANCH  20  26
ENDBRANCH   5  20
TORSDOF 8
