REMARK  Name = LIGAND
REMARK  11 active torsions:
REMARK  status: ('A' for Active; 'I' for Inactive)
REMARK    1  A    between atoms: C_1  and  N_2
REMARK    2  A    between atoms: C_6  and  C_7
REMARK    3  A    between atoms: C_7  and  C_8
REMARK    4  A    between atoms: C_7  and  N_13
REMARK    5  A    between atoms: C_8  and  C_9
REMARK    6  A    between atoms: C_8  and  C_11
REMARK    7  A    between atoms: C_9  and  C_10
REMARK    8  A    between atoms: C_11  and  C_12
REMARK    9  A    between atoms: C_14  and  C_15
REMARK   10  A    between atoms: C_17  and  O_18
REMARK   11  A    between atoms: C_19  and  C_20
REMARK                            x       y       z     vdW  Elec       q    Type
REMARK                         _______ _______ _______ _____ _____    ______ ____
ROOT
ATOM      1  C   UNL     1       1.321   0.957  -5.846  0.00  0.00    +0.153 C 
ATOM      2  C   UNL     1       2.234   2.077  -5.270  0.00  0.00    +0.058 C 
ATOM      3  C   UNL     1       1.471   2.601  -4.027  0.00  0.00    +0.134 C 
ATOM      4  C   UNL     1       0.575   1.411  -3.542  0.00  0.00    +0.137 C 
ATOM      5  C   UNL     1       0.886   0.238  -4.537  0.00  0.00    +0.076 C 
ENDROOT
BRANCH   1   6
ATOM      6  N   UNL     1       2.058   0.008  -6.680  0.00  0.00    -0.276 N 
ATOM      7  H   UNL     1       2.505  -0.815  -6.250  0.00  0.00    +0.258 HD
ATOM      8  C   UNL     1       2.149   0.198  -7.950  0.00  0.00    +0.341 C 
ATOM      9  N   UNL     1       2.810  -0.742  -8.706  0.00  0.00    -0.292 N 
ATOM     10  H   UNL     1       3.217  -1.573  -8.253  0.00  0.00    +0.255 HD
ATOM     11  H   UNL     1       2.898  -0.615  -9.724  0.00  0.00    +0.255 HD
ATOM     12  N   UNL     1       1.688   1.290  -8.637  0.00  0.00    -0.292 N 
ATOM     13  H   UNL     1       1.219   2.056  -8.133  0.00  0.00    +0.255 HD
ATOM     14  H   UNL     1       1.811   1.346  -9.658  0.00  0.00    +0.255 HD
ENDBRANCH   1   6
BRANCH   3  15
ATOM     15  C   UNL     1       2.383   3.155  -2.976  0.00  0.00    +0.362 C 
ATOM     16  O   UNL     1       3.583   2.585  -2.852  0.00  0.00    -0.246 OA
ATOM     17  O   UNL     1       2.112   4.133  -2.280  0.00  0.00    -0.246 OA
ENDBRANCH   3  15
BRANCH   4  18
ATOM     18  O   UNL     1      -0.817   1.807  -3.705  0.00  0.00    -0.391 OA
ATOM     19  H   UNL     1      -1.348   1.032  -4.128  0.00  0.00    +0.210 HD
ENDBRANCH   4  18
BRANCH   5  20
ATOM     20  C   UNL     1      -0.313  -0.766  -4.668  0.00  0.00    +0.085 C 
BRANCH  20  21
ATOM     21  N   UNL     1      -0.830  -0.768  -6.043  0.00  0.00    -0.312 N 
ATOM     22  H   UNL     1      -0.191  -0.589  -6.832  0.00  0.00    +0.149 HD
ATOM     23  C   UNL     1      -2.149  -1.006  -6.279  0.00  0.00    +0.210 C 
ATOM     24  O   UNL     1      -2.983  -1.280  -5.429  0.00  0.00    -0.276 OA
ATOM     25  C   UNL     1      -2.639  -0.931  -7.713  0.00  0.00    +0.109 C 
ENDBRANCH  20  21
BRANCH  20  26
ATOM     26  C   UNL     1       0.098  -2.230  -4.229  0.00  0.00    +0.009 C 
BRANCH  26  27
ATOM     27  C   UNL     1       0.319  -3.084  -5.524  0.00  0.00    +0.002 C 
ATOM     28  C   UNL     1      -0.314  -4.493  -5.481  0.00  0.00    +0.004 C 
ENDBRANCH  26  27
BRANCH  26  29
ATOM     29  C   UNL     1       1.344  -2.230  -3.291  0.00  0.00    +0.002 C 
ATOM     30  C   UNL     1       2.591  -2.999  -3.785  0.00  0.00    +0.004 C 
ENDBRANCH  26  29
ENDBRANCH  20  26
ENDBRANCH   5  20
TORSDOF 8
