REMARK  Name = LIGAND
REMARK  11 active torsions:
REMARK  status: ('A' for Active; 'I' for Inactive)
REMARK    1  A    between atoms: C_1  and  N_2
REMARK    2  A    between atoms: C_6  and  C_7
REMARK    3  A    between atoms: C_7  and  C_8
REMARK    4  A    between atoms: C_7  and  N_13
REMARK    5  A    between atoms: C_8  and  C_9
REMARK    6  A    between atoms: C_8  and  C_11
REMARK    7  A    between atoms: C_9  and  C_10
REMARK    8  A    between atoms: C_11  and  C_12
REMARK    9  A    between atoms: C_14  and  C_15
REMARK   10  A    between atoms: C_17  and  O_18
REMARK   11  A    between atoms: C_19  and  C_20
REMARK                            x       y       z     vdW  Elec       q    Type
REMARK                         _______ _______ _______ _____ _____    ______ ____
ROOT
ATOM      1  C   UNL     1       6.348   5.417   6.906  0.00  0.00    +0.153 C 
ATOM      2  C   UNL     1       5.725   5.217   8.317  0.00  0.00    +0.058 C 
ATOM      3  C   UNL     1       4.965   6.538   8.599  0.00  0.00    +0.134 C 
ATOM      4  C   UNL     1       4.599   7.129   7.195  0.00  0.00    +0.137 C 
ATOM      5  C   UNL     1       5.160   6.091   6.160  0.00  0.00    +0.076 C 
ENDROOT
BRANCH   1   6
ATOM      6  N   UNL     1       6.657   4.149   6.246  0.00  0.00    -0.276 N 
ATOM      7  H   UNL     1       5.901   3.593   5.820  0.00  0.00    +0.258 HD
ATOM      8  C   UNL     1       7.871   3.726   6.196  0.00  0.00    +0.341 C 
ATOM      9  N   UNL     1       8.127   2.552   5.526  0.00  0.00    -0.292 N 
ATOM     10  H   UNL     1       7.356   2.036   5.079  0.00  0.00    +0.255 HD
ATOM     11  H   UNL     1       9.090   2.190   5.470  0.00  0.00    +0.255 HD
ATOM     12  N   UNL     1       8.955   4.310   6.798  0.00  0.00    -0.292 N 
ATOM     13  H   UNL     1       8.834   5.169   7.353  0.00  0.00    +0.255 HD
ATOM     14  H   UNL     1       9.890   3.889   6.696  0.00  0.00    +0.255 HD
ENDBRANCH   1   6
BRANCH   3  15
ATOM     15  C   UNL     1       3.795   6.352   9.515  0.00  0.00    +0.362 C 
ATOM     16  O   UNL     1       3.253   5.135   9.566  0.00  0.00    -0.246 OA
ATOM     17  O   UNL     1       3.359   7.232  10.257  0.00  0.00    -0.246 OA
ENDBRANCH   3  15
BRANCH   4  18
ATOM     18  O   UNL     1       5.320   8.384   7.038  0.00  0.00    -0.391 OA
ATOM     19  H   UNL     1       4.651   9.167   7.033  0.00  0.00    +0.210 HD
ENDBRANCH   4  18
BRANCH   5  20
ATOM     20  C   UNL     1       5.501   6.752   4.778  0.00  0.00    +0.085 C 
BRANCH  20  21
ATOM     21  N   UNL     1       6.954   6.767   4.563  0.00  0.00    -0.312 N 
ATOM     22  H   UNL     1       7.512   5.924   4.764  0.00  0.00    +0.149 HD
ATOM     23  C   UNL     1       7.566   7.890   4.099  0.00  0.00    +0.210 C 
ATOM     24  O   UNL     1       7.001   8.926   3.779  0.00  0.00    -0.276 OA
ATOM     25  C   UNL     1       9.077   7.870   3.958  0.00  0.00    +0.109 C 
ENDBRANCH  20  21
BRANCH  20  26
ATOM     26  C   UNL     1       4.772   6.017   3.582  0.00  0.00    +0.009 C 
BRANCH  26  27
ATOM     27  C   UNL     1       5.530   6.370   2.257  0.00  0.00    +0.002 C 
ATOM     28  C   UNL     1       6.283   5.185   1.611  0.00  0.00    +0.004 C 
ENDBRANCH  26  27
BRANCH  26  29
ATOM     29  C   UNL     1       4.664   4.480   3.820  0.00  0.00    +0.002 C 
ATOM     30  C   UNL     1       3.534   3.734   3.074  0.00  0.00    +0.004 C 
ENDBRANCH  26  29
ENDBRANCH  20  26
ENDBRANCH   5  20
TORSDOF 8
