REMARK  Name = LIGAND
REMARK  7 active torsions:
REMARK  status: ('A' for Active; 'I' for Inactive)
REMARK    1  A    between atoms: C_1  and  C_26
REMARK    2  A    between atoms: C_6  and  C_11
REMARK    3  A    between atoms: C_11  and  N_14
REMARK    4  A    between atoms: C_24  and  C_35
REMARK    5  A    between atoms: C_40  and  C_42
REMARK    6  A    between atoms: C_42  and  C_47
REMARK    7  A    between atoms: C_47  and  C_50
REMARK                            x       y       z     vdW  Elec       q    Type
REMARK                         _______ _______ _______ _____ _____    ______ ____
ROOT
ATOM      1  C   UNL     1      -6.257  -2.420   1.886  0.00  0.00    +0.022 C 
ATOM      2  C   UNL     1      -6.856  -2.301   3.343  0.00  0.00    +0.027 C 
ATOM      3  C   UNL     1      -8.396  -2.291   3.309  0.00  0.00    +0.108 C 
ATOM      4  N   UNL     1      -8.968  -3.477   2.596  0.00  0.00    -0.297 N 
ATOM      5  C   UNL     1      -9.735  -4.437   3.276  0.00  0.00    +0.248 C 
ATOM      6  O   UNL     1      -9.959  -4.372   4.477  0.00  0.00    -0.270 OA
ATOM      7  C   UNL     1      -8.510  -3.489   1.182  0.00  0.00    +0.108 C 
ATOM      8  C   UNL     1      -6.940  -3.646   1.149  0.00  0.00    +0.027 C 
ENDROOT
BRANCH   1   9
ATOM      9  C   UNL     1      -4.714  -2.457   1.898  0.00  0.00    -0.044 A 
ATOM     10  C   UNL     1      -4.037  -3.432   1.051  0.00  0.00    +0.004 A 
ATOM     11  C   UNL     1      -2.605  -3.519   1.025  0.00  0.00    +0.000 A 
ATOM     12  C   UNL     1      -1.806  -2.653   1.828  0.00  0.00    +0.002 A 
ATOM     13  C   UNL     1      -2.441  -1.673   2.682  0.00  0.00    -0.065 A 
ATOM     14  C   UNL     1      -3.896  -1.582   2.713  0.00  0.00    +0.005 A 
BRANCH  13  15
ATOM     15  C   UNL     1      -1.598  -0.764   3.537  0.00  0.00    -0.051 C 
BRANCH  15  16
ATOM     16  N   UNL     1      -0.136  -0.809   3.225  0.00  0.00    +0.381 N 
ATOM     17  H   UNL     1       0.288   0.103   3.306  0.00  0.00    -0.090 HD
ATOM     18  H   UNL     1       0.023  -1.116   2.275  0.00  0.00    -0.090 HD
ATOM     19  H   UNL     1       0.367  -1.436   3.837  0.00  0.00    -0.090 HD
ENDBRANCH  15  16
ENDBRANCH  13  15
ENDBRANCH   1   9
BRANCH   5  20
ATOM     20  C   UNL     1     -10.391  -5.615   2.610  0.00  0.00    +0.055 A 
ATOM     21  C   UNL     1     -10.081  -6.946   3.008  0.00  0.00    +0.123 A 
ATOM     22  N   UNL     1     -10.609  -8.047   2.441  0.00  0.00    -0.262 NA
ATOM     23  C   UNL     1     -11.479  -7.903   1.426  0.00  0.00    +0.114 A 
ATOM     24  C   UNL     1     -11.890  -6.637   0.915  0.00  0.00    -0.028 A 
ATOM     25  C   UNL     1     -11.325  -5.448   1.532  0.00  0.00    +0.019 A 
BRANCH  24  26
ATOM     26  C   UNL     1     -12.848  -6.549  -0.229  0.00  0.00    +0.041 C 
BRANCH  26  27
ATOM     27  C   UNL     1     -13.749  -5.321  -0.161  0.00  0.00    +0.040 C 
BRANCH  27  28
ATOM     28  C   UNL     1     -14.771  -5.156  -1.258  0.00  0.00    -0.047 A 
ATOM     29  C   UNL     1     -14.387  -5.382  -2.650  0.00  0.00    +0.003 A 
ATOM     30  C   UNL     1     -15.351  -5.235  -3.699  0.00  0.00    +0.000 A 
ATOM     31  C   UNL     1     -16.722  -4.859  -3.407  0.00  0.00    +0.000 A 
ATOM     32  C   UNL     1     -17.114  -4.634  -2.040  0.00  0.00    +0.000 A 
ATOM     33  C   UNL     1     -16.128  -4.785  -0.967  0.00  0.00    +0.003 A 
ENDBRANCH  27  28
ENDBRANCH  26  27
ENDBRANCH  24  26
ENDBRANCH   5  20
TORSDOF 7
