REMARK  Name = LIGAND
REMARK  10 active torsions:
REMARK  status: ('A' for Active; 'I' for Inactive)
REMARK    1  A    between atoms: O_1  and  C_4
REMARK    2  A    between atoms: C_3  and  C_4
REMARK    3  A    between atoms: C_3  and  C_7
REMARK    4  A    between atoms: C_3  and  C_11
REMARK    5  A    between atoms: C_3  and  C_15
REMARK    6  A    between atoms: C_15  and  O_17
REMARK    7  A    between atoms: C_15  and  C_19
REMARK    8  A    between atoms: N_21  and  C_23
REMARK    9  A    between atoms: C_23  and  C_26
REMARK   10  A    between atoms: C_26  and  C_29
REMARK                            x       y       z     vdW  Elec       q    Type
REMARK                         _______ _______ _______ _____ _____    ______ ____
ROOT
ATOM      1  C   UNL     1      53.353   5.332   7.990  0.00  0.00    +0.208 C 
ENDROOT
BRANCH   1   2
ATOM      2  C   UNL     1      52.056   5.678   7.121  0.00  0.00    +0.242 C 
ATOM      3  N   UNL     1      50.908   5.076   7.385  0.00  0.00    -0.313 N 
ATOM      4  H   UNL     1      50.860   4.455   8.205  0.00  0.00    +0.149 HD
ATOM      5  O   UNL     1      52.171   6.555   6.120  0.00  0.00    -0.273 OA
BRANCH   3   6
ATOM      6  C   UNL     1      49.679   5.250   6.556  0.00  0.00    +0.115 C 
BRANCH   6   7
ATOM      7  C   UNL     1      48.574   6.054   7.305  0.00  0.00    +0.144 C 
BRANCH   7   8
ATOM      8  C   UNL     1      49.120   7.354   7.937  0.00  0.00    +0.357 C 
ATOM      9  O   UNL     1      49.041   8.414   7.147  0.00  0.00    -0.246 OA
ATOM     10  O   UNL     1      49.617   7.398   9.170  0.00  0.00    -0.246 OA
ENDBRANCH   7   8
ENDBRANCH   6   7
ENDBRANCH   3   6
ENDBRANCH   1   2
BRANCH   1  11
ATOM     11  C   UNL     1      54.270   4.068   7.352  0.00  0.00    +0.023 C 
ATOM     12  C   UNL     1      53.453   2.827   7.102  0.00  0.00    +0.016 C 
ATOM     13  C   UNL     1      54.957   4.600   6.022  0.00  0.00    +0.016 C 
BRANCH  11  14
ATOM     14  C   UNL     1      55.424   3.604   8.338  0.00  0.00    +0.165 C 
BRANCH  14  15
ATOM     15  O   UNL     1      56.422   4.603   8.535  0.00  0.00    -0.394 OA
ATOM     16  H   UNL     1      57.343   4.226   8.269  0.00  0.00    +0.209 HD
ENDBRANCH  14  15
ENDBRANCH  11  14
ENDBRANCH   1  11
BRANCH   1  17
ATOM     17  O   UNL     1      54.166   6.548   8.004  0.00  0.00    -0.382 OA
ATOM     18  H   UNL     1      55.164   6.294   7.990  0.00  0.00    +0.210 HD
ENDBRANCH   1  17
TORSDOF 8
