REMARK  Name = LIGAND
REMARK  10 active torsions:
REMARK  status: ('A' for Active; 'I' for Inactive)
REMARK    1  A    between atoms: O_1  and  C_4
REMARK    2  A    between atoms: C_3  and  C_4
REMARK    3  A    between atoms: C_3  and  C_7
REMARK    4  A    between atoms: C_3  and  C_11
REMARK    5  A    between atoms: C_3  and  C_15
REMARK    6  A    between atoms: C_15  and  O_17
REMARK    7  A    between atoms: C_15  and  C_19
REMARK    8  A    between atoms: N_21  and  C_23
REMARK    9  A    between atoms: C_23  and  C_26
REMARK   10  A    between atoms: C_26  and  C_29
REMARK                            x       y       z     vdW  Elec       q    Type
REMARK                         _______ _______ _______ _____ _____    ______ ____
ROOT
ATOM      1  C   UNL     1      -3.321   0.965   6.503  0.00  0.00    +0.208 C 
ENDROOT
BRANCH   1   2
ATOM      2  C   UNL     1      -3.387  -0.165   5.374  0.00  0.00    +0.242 C 
ATOM      3  N   UNL     1      -2.412  -1.055   5.276  0.00  0.00    -0.313 N 
ATOM      4  H   UNL     1      -1.671  -1.047   5.990  0.00  0.00    +0.149 HD
ATOM      5  O   UNL     1      -4.421  -0.166   4.528  0.00  0.00    -0.273 OA
BRANCH   3   6
ATOM      6  C   UNL     1      -2.333  -2.071   4.185  0.00  0.00    +0.115 C 
BRANCH   6   7
ATOM      7  C   UNL     1      -1.246  -1.712   3.127  0.00  0.00    +0.144 C 
BRANCH   7   8
ATOM      8  C   UNL     1      -1.472  -2.441   1.784  0.00  0.00    +0.357 C 
ATOM      9  O   UNL     1      -0.362  -2.661   1.095  0.00  0.00    -0.246 OA
ATOM     10  O   UNL     1      -2.677  -2.819   1.366  0.00  0.00    -0.246 OA
ENDBRANCH   7   8
ENDBRANCH   6   7
ENDBRANCH   3   6
ENDBRANCH   1   2
BRANCH   1  11
ATOM     11  C   UNL     1      -4.024   0.495   7.963  0.00  0.00    +0.023 C 
ATOM     12  C   UNL     1      -3.476  -0.811   8.478  0.00  0.00    +0.016 C 
ATOM     13  C   UNL     1      -3.804   1.678   9.001  0.00  0.00    +0.016 C 
BRANCH  11  14
ATOM     14  C   UNL     1      -5.587   0.257   7.829  0.00  0.00    +0.165 C 
BRANCH  14  15
ATOM     15  O   UNL     1      -6.108  -0.598   8.844  0.00  0.00    -0.394 OA
ATOM     16  H   UNL     1      -7.129  -0.476   8.906  0.00  0.00    +0.209 HD
ENDBRANCH  14  15
ENDBRANCH  11  14
ENDBRANCH   1  11
BRANCH   1  17
ATOM     17  O   UNL     1      -1.900   1.232   6.725  0.00  0.00    -0.382 OA
ATOM     18  H   UNL     1      -1.634   2.102   6.243  0.00  0.00    +0.210 HD
ENDBRANCH   1  17
TORSDOF 8
