REMARK  Name = LIGAND
REMARK  10 active torsions:
REMARK  status: ('A' for Active; 'I' for Inactive)
REMARK    1  A    between atoms: O_1  and  C_4
REMARK    2  A    between atoms: C_3  and  C_4
REMARK    3  A    between atoms: C_3  and  C_7
REMARK    4  A    between atoms: C_3  and  C_11
REMARK    5  A    between atoms: C_3  and  C_15
REMARK    6  A    between atoms: C_15  and  O_17
REMARK    7  A    between atoms: C_15  and  C_19
REMARK    8  A    between atoms: N_21  and  C_23
REMARK    9  A    between atoms: C_23  and  C_26
REMARK   10  A    between atoms: C_26  and  C_29
REMARK                            x       y       z     vdW  Elec       q    Type
REMARK                         _______ _______ _______ _____ _____    ______ ____
ROOT
ATOM      1  C   UNL     1      -5.316   5.318   5.883  0.00  0.00    +0.208 C 
ENDROOT
BRANCH   1   2
ATOM      2  C   UNL     1      -6.855   5.235   6.312  0.00  0.00    +0.242 C 
ATOM      3  N   UNL     1      -7.619   6.311   6.231  0.00  0.00    -0.313 N 
ATOM      4  H   UNL     1      -7.219   7.163   5.812  0.00  0.00    +0.149 HD
ATOM      5  O   UNL     1      -7.329   4.074   6.774  0.00  0.00    -0.273 OA
BRANCH   3   6
ATOM      6  C   UNL     1      -9.030   6.356   6.717  0.00  0.00    +0.115 C 
BRANCH   6   7
ATOM      7  C   UNL     1      -9.447   7.784   7.179  0.00  0.00    +0.144 C 
BRANCH   7   8
ATOM      8  C   UNL     1      -8.413   8.417   8.137  0.00  0.00    +0.357 C 
ATOM      9  O   UNL     1      -8.782   8.416   9.409  0.00  0.00    -0.246 OA
ATOM     10  O   UNL     1      -7.252   8.910   7.715  0.00  0.00    -0.246 OA
ENDBRANCH   7   8
ENDBRANCH   6   7
ENDBRANCH   3   6
ENDBRANCH   1   2
BRANCH   1  11
ATOM     11  C   UNL     1      -4.294   5.784   7.142  0.00  0.00    +0.023 C 
ATOM     12  C   UNL     1      -5.046   6.150   8.395  0.00  0.00    +0.016 C 
ATOM     13  C   UNL     1      -3.272   4.594   7.393  0.00  0.00    +0.016 C 
BRANCH  11  14
ATOM     14  C   UNL     1      -3.448   7.078   6.782  0.00  0.00    +0.165 C 
BRANCH  14  15
ATOM     15  O   UNL     1      -3.926   8.253   7.432  0.00  0.00    -0.394 OA
ATOM     16  H   UNL     1      -4.775   8.027   7.970  0.00  0.00    +0.209 HD
ENDBRANCH  14  15
ENDBRANCH  11  14
ENDBRANCH   1  11
BRANCH   1  17
ATOM     17  O   UNL     1      -4.946   3.972   5.445  0.00  0.00    -0.382 OA
ATOM     18  H   UNL     1      -4.577   4.014   4.484  0.00  0.00    +0.210 HD
ENDBRANCH   1  17
TORSDOF 8
