REMARK  Name = LIGAND
REMARK  10 active torsions:
REMARK  status: ('A' for Active; 'I' for Inactive)
REMARK    1  A    between atoms: O_1  and  C_4
REMARK    2  A    between atoms: C_3  and  C_4
REMARK    3  A    between atoms: C_3  and  C_7
REMARK    4  A    between atoms: C_3  and  C_11
REMARK    5  A    between atoms: C_3  and  C_15
REMARK    6  A    between atoms: C_15  and  O_17
REMARK    7  A    between atoms: C_15  and  C_19
REMARK    8  A    between atoms: N_21  and  C_23
REMARK    9  A    between atoms: C_23  and  C_26
REMARK   10  A    between atoms: C_26  and  C_29
REMARK                            x       y       z     vdW  Elec       q    Type
REMARK                         _______ _______ _______ _____ _____    ______ ____
ROOT
ATOM      1  C   UNL     1      -0.982   6.969   3.734  0.00  0.00    +0.208 C 
ENDROOT
BRANCH   1   2
ATOM      2  C   UNL     1      -0.282   6.117   2.576  0.00  0.00    +0.242 C 
ATOM      3  N   UNL     1       0.564   5.150   2.892  0.00  0.00    -0.313 N 
ATOM      4  H   UNL     1       0.688   4.915   3.887  0.00  0.00    +0.149 HD
ATOM      5  O   UNL     1      -0.549   6.424   1.304  0.00  0.00    -0.273 OA
BRANCH   3   6
ATOM      6  C   UNL     1       1.349   4.383   1.881  0.00  0.00    +0.115 C 
BRANCH   6   7
ATOM      7  C   UNL     1       0.687   3.015   1.537  0.00  0.00    +0.144 C 
BRANCH   7   8
ATOM      8  C   UNL     1      -0.339   2.574   2.605  0.00  0.00    +0.357 C 
ATOM      9  O   UNL     1      -1.556   3.065   2.422  0.00  0.00    -0.246 OA
ATOM     10  O   UNL     1      -0.023   1.767   3.613  0.00  0.00    -0.246 OA
ENDBRANCH   7   8
ENDBRANCH   6   7
ENDBRANCH   3   6
ENDBRANCH   1   2
BRANCH   1  11
ATOM     11  C   UNL     1      -0.255   8.468   3.996  0.00  0.00    +0.023 C 
ATOM     12  C   UNL     1      -1.221   9.497   4.526  0.00  0.00    +0.016 C 
ATOM     13  C   UNL     1       0.966   8.241   4.987  0.00  0.00    +0.016 C 
BRANCH  11  14
ATOM     14  C   UNL     1       0.320   9.101   2.659  0.00  0.00    +0.165 C 
BRANCH  14  15
ATOM     15  O   UNL     1       1.639   9.621   2.812  0.00  0.00    -0.394 OA
ATOM     16  H   UNL     1       2.238   8.912   3.259  0.00  0.00    +0.209 HD
ENDBRANCH  14  15
ENDBRANCH  11  14
ENDBRANCH   1  11
BRANCH   1  17
ATOM     17  O   UNL     1      -2.363   7.180   3.301  0.00  0.00    -0.382 OA
ATOM     18  H   UNL     1      -2.949   6.398   3.627  0.00  0.00    +0.210 HD
ENDBRANCH   1  17
TORSDOF 8
