REMARK  Name = LIGAND
REMARK  3 active torsions:
REMARK  status: ('A' for Active; 'I' for Inactive)
REMARK    1  A    between atoms: C_4  and  C_8
REMARK    2  A    between atoms: C_16  and  C_24
REMARK    3  A    between atoms: N_26  and  C_28
REMARK                            x       y       z     vdW  Elec       q    Type
REMARK                         _______ _______ _______ _____ _____    ______ ____
ROOT
ATOM      1  C   UNL     1      19.186  18.715  33.577  0.00  0.00    +0.061 A 
ATOM      2  C   UNL     1      20.512  18.588  34.119  0.00  0.00    +0.024 A 
ATOM      3  C   UNL     1      21.413  17.594  33.838  0.00  0.00    -0.017 A 
ATOM      4  C   UNL     1      22.657  17.679  34.391  0.00  0.00    +0.009 A 
ATOM      5  C   UNL     1      23.542  16.687  34.025  0.00  0.00    +0.013 A 
ATOM      6  C   UNL     1      23.319  15.560  33.102  0.00  0.00    +0.038 A 
ATOM      7  C   UNL     1      21.980  15.586  32.570  0.00  0.00    +0.021 A 
ATOM      8  C   UNL     1      21.035  16.547  32.908  0.00  0.00    -0.017 A 
ATOM      9  C   UNL     1      19.770  16.585  32.274  0.00  0.00    +0.009 A 
ATOM     10  C   UNL     1      18.916  17.669  32.620  0.00  0.00    +0.016 A 
ENDROOT
BRANCH   1  14
ATOM     11  N   UNL     1      16.910  19.481  33.750  0.00  0.00    -0.288 N 
ATOM     12  H   UNL     1      16.177  20.172  33.965  0.00  0.00    +0.301 HD
ATOM     13  H   UNL     1      16.653  18.556  33.377  0.00  0.00    +0.301 HD
ATOM     14  C   UNL     1      18.219  19.791  33.958  0.00  0.00    +0.266 C 
ATOM     15  N   UNL     1      18.664  20.989  34.448  0.00  0.00    -0.250 N 
ATOM     16  H   UNL     1      17.990  21.730  34.687  0.00  0.00    +0.288 HD
ATOM     17  H   UNL     1      19.673  21.149  34.578  0.00  0.00    +0.288 HD
ENDBRANCH   1  14
BRANCH   6  18
ATOM     18  C   UNL     1      24.342  14.575  32.780  0.00  0.00    +0.248 C 
ATOM     19  N   UNL     1      24.397  14.185  31.466  0.00  0.00    -0.282 N 
ATOM     20  H   UNL     1      23.685  14.540  30.812  0.00  0.00    +0.155 HD
ATOM     21  O   UNL     1      25.179  14.333  33.642  0.00  0.00    -0.270 OA
BRANCH  19  22
ATOM     22  C   UNL     1      25.372  13.334  30.991  0.00  0.00    +0.034 A 
ATOM     23  C   UNL     1      25.943  12.234  31.688  0.00  0.00    +0.023 A 
ATOM     24  C   UNL     1      26.900  11.427  31.052  0.00  0.00    +0.002 A 
ATOM     25  C   UNL     1      27.265  11.753  29.748  0.00  0.00    +0.000 A 
ATOM     26  C   UNL     1      26.749  12.894  29.058  0.00  0.00    +0.002 A 
ATOM     27  C   UNL     1      25.821  13.700  29.718  0.00  0.00    +0.023 A 
ENDBRANCH  19  22
ENDBRANCH   6  18
TORSDOF 3
