REMARK  Name = LIGAND
REMARK  3 active torsions:
REMARK  status: ('A' for Active; 'I' for Inactive)
REMARK    1  A    between atoms: C_4  and  C_8
REMARK    2  A    between atoms: C_16  and  C_24
REMARK    3  A    between atoms: N_26  and  C_28
REMARK                            x       y       z     vdW  Elec       q    Type
REMARK                         _______ _______ _______ _____ _____    ______ ____
ROOT
ATOM      1  C   UNL     1       2.124  -5.568   0.262  0.00  0.00    +0.061 A 
ATOM      2  C   UNL     1       2.017  -7.002   0.253  0.00  0.00    +0.024 A 
ATOM      3  C   UNL     1       2.864  -7.884   0.873  0.00  0.00    -0.017 A 
ATOM      4  C   UNL     1       2.560  -9.213   0.818  0.00  0.00    +0.009 A 
ATOM      5  C   UNL     1       3.411 -10.048   1.510  0.00  0.00    +0.013 A 
ATOM      6  C   UNL     1       4.592  -9.686   2.313  0.00  0.00    +0.038 A 
ATOM      7  C   UNL     1       4.801  -8.260   2.311  0.00  0.00    +0.021 A 
ATOM      8  C   UNL     1       3.991  -7.365   1.623  0.00  0.00    -0.017 A 
ATOM      9  C   UNL     1       4.180  -5.967   1.742  0.00  0.00    +0.009 A 
ATOM     10  C   UNL     1       3.234  -5.137   1.077  0.00  0.00    +0.016 A 
ENDROOT
BRANCH   1  14
ATOM     11  N   UNL     1      -0.103  -4.728  -0.102  0.00  0.00    -0.288 N 
ATOM     12  H   UNL     1      -0.810  -4.145  -0.573  0.00  0.00    +0.301 HD
ATOM     13  H   UNL     1      -0.384  -5.370   0.653  0.00  0.00    +0.301 HD
ATOM     14  C   UNL     1       1.203  -4.649  -0.477  0.00  0.00    +0.266 C 
ATOM     15  N   UNL     1       1.678  -3.831  -1.466  0.00  0.00    -0.250 N 
ATOM     16  H   UNL     1       1.031  -3.218  -1.982  0.00  0.00    +0.288 HD
ATOM     17  H   UNL     1       2.682  -3.828  -1.693  0.00  0.00    +0.288 HD
ENDBRANCH   1  14
BRANCH   6  18
ATOM     18  C   UNL     1       5.412 -10.663   3.016  0.00  0.00    +0.248 C 
ATOM     19  N   UNL     1       4.934 -11.072   4.234  0.00  0.00    -0.282 N 
ATOM     20  H   UNL     1       4.086 -10.624   4.611  0.00  0.00    +0.155 HD
ATOM     21  O   UNL     1       6.332 -11.178   2.390  0.00  0.00    -0.270 OA
BRANCH  19  22
ATOM     22  C   UNL     1       5.548 -12.062   4.972  0.00  0.00    +0.034 A 
ATOM     23  C   UNL     1       6.844 -11.998   5.553  0.00  0.00    +0.023 A 
ATOM     24  C   UNL     1       7.318 -13.075   6.319  0.00  0.00    +0.002 A 
ATOM     25  C   UNL     1       6.489 -14.184   6.468  0.00  0.00    +0.000 A 
ATOM     26  C   UNL     1       5.210 -14.290   5.837  0.00  0.00    +0.002 A 
ATOM     27  C   UNL     1       4.770 -13.221   5.055  0.00  0.00    +0.023 A 
ENDBRANCH  19  22
ENDBRANCH   6  18
TORSDOF 3
