REMARK  Name = LIGAND
REMARK  3 active torsions:
REMARK  status: ('A' for Active; 'I' for Inactive)
REMARK    1  A    between atoms: C_4  and  C_8
REMARK    2  A    between atoms: C_16  and  C_24
REMARK    3  A    between atoms: N_26  and  C_28
REMARK                            x       y       z     vdW  Elec       q    Type
REMARK                         _______ _______ _______ _____ _____    ______ ____
ROOT
ATOM      1  C   UNL     1      -2.719   4.087   5.092  0.00  0.00    +0.061 A 
ATOM      2  C   UNL     1      -2.407   4.029   6.494  0.00  0.00    +0.024 A 
ATOM      3  C   UNL     1      -2.123   5.095   7.308  0.00  0.00    -0.017 A 
ATOM      4  C   UNL     1      -1.924   4.854   8.636  0.00  0.00    +0.009 A 
ATOM      5  C   UNL     1      -1.704   5.968   9.418  0.00  0.00    +0.013 A 
ATOM      6  C   UNL     1      -1.673   7.382   9.005  0.00  0.00    +0.038 A 
ATOM      7  C   UNL     1      -1.912   7.511   7.590  0.00  0.00    +0.021 A 
ATOM      8  C   UNL     1      -2.126   6.430   6.743  0.00  0.00    -0.017 A 
ATOM      9  C   UNL     1      -2.461   6.622   5.381  0.00  0.00    +0.009 A 
ATOM     10  C   UNL     1      -2.759   5.453   4.627  0.00  0.00    +0.016 A 
ENDROOT
BRANCH   1  14
ATOM     11  N   UNL     1      -3.933   3.055   3.287  0.00  0.00    -0.288 N 
ATOM     12  H   UNL     1      -4.185   2.273   2.665  0.00  0.00    +0.301 HD
ATOM     13  H   UNL     1      -4.411   3.963   3.193  0.00  0.00    +0.301 HD
ATOM     14  C   UNL     1      -2.969   2.888   4.233  0.00  0.00    +0.266 C 
ATOM     15  N   UNL     1      -2.277   1.725   4.439  0.00  0.00    -0.250 N 
ATOM     16  H   UNL     1      -2.473   0.899   3.855  0.00  0.00    +0.288 HD
ATOM     17  H   UNL     1      -1.560   1.676   5.177  0.00  0.00    +0.288 HD
ENDBRANCH   1  14
BRANCH   6  18
ATOM     18  C   UNL     1      -1.443   8.482   9.931  0.00  0.00    +0.248 C 
ATOM     19  N   UNL     1      -2.237   9.585   9.750  0.00  0.00    -0.282 N 
ATOM     20  H   UNL     1      -2.881   9.608   8.947  0.00  0.00    +0.155 HD
ATOM     21  O   UNL     1      -0.721   8.261  10.896  0.00  0.00    -0.270 OA
BRANCH  19  22
ATOM     22  C   UNL     1      -2.203  10.665  10.607  0.00  0.00    +0.034 A 
ATOM     23  C   UNL     1      -3.051  10.878  11.728  0.00  0.00    +0.023 A 
ATOM     24  C   UNL     1      -2.864  12.011  12.537  0.00  0.00    +0.002 A 
ATOM     25  C   UNL     1      -1.848  12.899  12.192  0.00  0.00    +0.000 A 
ATOM     26  C   UNL     1      -1.031  12.732  11.030  0.00  0.00    +0.002 A 
ATOM     27  C   UNL     1      -1.252  11.616  10.223  0.00  0.00    +0.023 A 
ENDBRANCH  19  22
ENDBRANCH   6  18
TORSDOF 3
