REMARK  Name = LIGAND
REMARK  2 active torsions:
REMARK  status: ('A' for Active; 'I' for Inactive)
REMARK    1  A    between atoms: C_4  and  C_13
REMARK    2  A    between atoms: N_11  and  C_22
REMARK                            x       y       z     vdW  Elec       q    Type
REMARK                         _______ _______ _______ _____ _____    ______ ____
ROOT
ATOM      1  C   UNL     1       2.741   2.521   1.532  0.00  0.00    -0.037 C 
ATOM      2  C   UNL     1       3.435   1.484   2.437  0.00  0.00    -0.013 C 
ATOM      3  C   UNL     1       2.419   1.202   3.552  0.00  0.00    -0.020 C 
ATOM      4  C   UNL     1       1.104   1.856   3.057  0.00  0.00    -0.078 C 
ATOM      5  N   UNL     1       1.339   2.159   1.655  0.00  0.00    +0.382 N 
ATOM      6  H   UNL     1       1.214   1.299   1.139  0.00  0.00    -0.081 HD
ATOM      7  C   UNL     1       0.375   3.148   1.085  0.00  0.00    -0.095 C 
ENDROOT
BRANCH   1  12
ATOM      8  N   UNL     1       2.919   2.007  -2.184  0.00  0.00    -0.263 NA
ATOM      9  C   UNL     1       4.169   2.388  -2.462  0.00  0.00    +0.111 A 
ATOM     10  C   UNL     1       5.043   2.823  -1.479  0.00  0.00    +0.020 A 
ATOM     11  C   UNL     1       4.582   2.874  -0.177  0.00  0.00    +0.005 A 
ATOM     12  C   UNL     1       3.286   2.470   0.127  0.00  0.00    -0.043 A 
ATOM     13  C   UNL     1       2.498   2.041  -0.919  0.00  0.00    +0.112 A 
ENDBRANCH   1  12
TORSDOF 1
