REMARK  Name = LIGAND
REMARK  2 active torsions:
REMARK  status: ('A' for Active; 'I' for Inactive)
REMARK    1  A    between atoms: C_4  and  C_13
REMARK    2  A    between atoms: N_11  and  C_22
REMARK                            x       y       z     vdW  Elec       q    Type
REMARK                         _______ _______ _______ _____ _____    ______ ____
ROOT
ATOM      1  C   UNL     1      -1.785  -2.622   3.779  0.00  0.00    -0.037 C 
ATOM      2  C   UNL     1      -1.085  -3.004   5.099  0.00  0.00    -0.013 C 
ATOM      3  C   UNL     1      -1.891  -2.280   6.187  0.00  0.00    -0.020 C 
ATOM      4  C   UNL     1      -3.168  -1.783   5.463  0.00  0.00    -0.078 C 
ATOM      5  N   UNL     1      -3.173  -2.481   4.187  0.00  0.00    +0.382 N 
ATOM      6  H   UNL     1      -3.521  -3.414   4.359  0.00  0.00    -0.081 HD
ATOM      7  C   UNL     1      -4.076  -1.864   3.169  0.00  0.00    -0.095 C 
ENDROOT
BRANCH   1  12
ATOM      8  N   UNL     1      -1.409  -4.206   0.396  0.00  0.00    -0.263 NA
ATOM      9  C   UNL     1      -1.072  -5.462   0.707  0.00  0.00    +0.111 A 
ATOM     10  C   UNL     1      -0.956  -5.888   2.019  0.00  0.00    +0.020 A 
ATOM     11  C   UNL     1      -1.181  -4.966   3.025  0.00  0.00    +0.005 A 
ATOM     12  C   UNL     1      -1.542  -3.660   2.713  0.00  0.00    -0.043 A 
ATOM     13  C   UNL     1      -1.645  -3.336   1.378  0.00  0.00    +0.112 A 
ENDBRANCH   1  12
TORSDOF 1
