REMARK  Name = LIGAND
REMARK  2 active torsions:
REMARK  status: ('A' for Active; 'I' for Inactive)
REMARK    1  A    between atoms: C_2  and  C_18
REMARK    2  A    between atoms: C_18  and  C_21
REMARK                            x       y       z     vdW  Elec       q    Type
REMARK                         _______ _______ _______ _____ _____    ______ ____
ROOT
ATOM      1  C   UNL     1      -1.931   5.249   4.001  0.00  0.00    -0.014 A 
ATOM      2  C   UNL     1      -1.638   4.726   2.672  0.00  0.00    +0.009 A 
ATOM      3  C   UNL     1      -1.422   3.378   2.497  0.00  0.00    +0.001 A 
ATOM      4  C   UNL     1      -1.512   2.501   3.593  0.00  0.00    +0.001 A 
ATOM      5  C   UNL     1      -1.772   2.947   4.875  0.00  0.00    +0.008 A 
ATOM      6  C   UNL     1      -2.010   4.341   5.138  0.00  0.00    -0.018 A 
ATOM      7  C   UNL     1      -2.305   4.836   6.419  0.00  0.00    +0.008 A 
ATOM      8  C   UNL     1      -2.502   6.166   6.598  0.00  0.00    +0.001 A 
ATOM      9  C   UNL     1      -2.430   7.109   5.546  0.00  0.00    +0.005 A 
ATOM     10  C   UNL     1      -2.133   6.613   4.235  0.00  0.00    -0.029 A 
ENDROOT
BRANCH  10  11
ATOM     11  C   UNL     1      -2.094   7.631   3.063  0.00  0.00    +0.160 C 
BRANCH  11  12
ATOM     12  C   UNL     1      -3.346   8.442   3.050  0.00  0.00    +0.360 C 
ATOM     13  O   UNL     1      -3.070   9.737   3.086  0.00  0.00    -0.246 OA
ATOM     14  O   UNL     1      -4.547   7.928   3.112  0.00  0.00    -0.246 OA
ENDBRANCH  11  12
ENDBRANCH  10  11
TORSDOF 2
