REMARK  Name = LIGAND
REMARK  2 active torsions:
REMARK  status: ('A' for Active; 'I' for Inactive)
REMARK    1  A    between atoms: C_2  and  C_18
REMARK    2  A    between atoms: C_18  and  C_21
REMARK                            x       y       z     vdW  Elec       q    Type
REMARK                         _______ _______ _______ _____ _____    ______ ____
ROOT
ATOM      1  C   UNL     1      -5.259   5.693  -0.773  0.00  0.00    -0.014 A 
ATOM      2  C   UNL     1      -5.563   4.436  -0.098  0.00  0.00    +0.009 A 
ATOM      3  C   UNL     1      -6.857   3.969  -0.067  0.00  0.00    +0.001 A 
ATOM      4  C   UNL     1      -7.881   4.687  -0.710  0.00  0.00    +0.001 A 
ATOM      5  C   UNL     1      -7.650   5.889  -1.352  0.00  0.00    +0.008 A 
ATOM      6  C   UNL     1      -6.324   6.442  -1.427  0.00  0.00    -0.018 A 
ATOM      7  C   UNL     1      -6.036   7.646  -2.091  0.00  0.00    +0.008 A 
ATOM      8  C   UNL     1      -4.765   8.117  -2.110  0.00  0.00    +0.001 A 
ATOM      9  C   UNL     1      -3.682   7.453  -1.489  0.00  0.00    +0.005 A 
ATOM     10  C   UNL     1      -3.965   6.222  -0.811  0.00  0.00    -0.029 A 
ENDROOT
BRANCH  10  11
ATOM     11  C   UNL     1      -2.779   5.458  -0.162  0.00  0.00    +0.160 C 
BRANCH  11  12
ATOM     12  C   UNL     1      -1.758   5.127  -1.198  0.00  0.00    +0.360 C 
ATOM     13  O   UNL     1      -0.535   5.364  -0.748  0.00  0.00    -0.246 OA
ATOM     14  O   UNL     1      -2.051   4.761  -2.419  0.00  0.00    -0.246 OA
ENDBRANCH  11  12
ENDBRANCH  10  11
TORSDOF 2
