REMARK  Name = LIGAND
REMARK  3 active torsions:
REMARK  status: ('A' for Active; 'I' for Inactive)
REMARK    1  A    between atoms: C_6  and  C_7
REMARK    2  A    between atoms: C_16  and  O_19
REMARK    3  A    between atoms: N_27  and  C_28
REMARK                            x       y       z     vdW  Elec       q    Type
REMARK                         _______ _______ _______ _____ _____    ______ ____
ROOT
ATOM      1  O   UNL     1       2.163  -7.127  -0.785  0.00  0.00    -0.288 OA
ATOM      2  C   UNL     1       1.876  -6.454  -1.792  0.00  0.00    +0.211 C 
ATOM      3  C   UNL     1       1.319  -5.081  -1.620  0.00  0.00    +0.235 C 
ATOM      4  C   UNL     1       0.487  -4.844  -0.338  0.00  0.00    +0.099 C 
ATOM      5  C   UNL     1      -0.482  -3.755  -0.792  0.00  0.00    +0.236 C 
ATOM      6  N   UNL     1      -0.605  -3.917  -2.256  0.00  0.00    -0.188 N 
ATOM      7  C   UNL     1       0.276  -4.796  -2.712  0.00  0.00    +0.334 C 
ATOM      8  N   UNL     1       0.624  -5.124  -4.017  0.00  0.00    -0.042 NA
ATOM      9  C   UNL     1       1.583  -6.076  -4.224  0.00  0.00    +0.187 A 
ATOM     10  C   UNL     1       1.923  -6.305  -5.559  0.00  0.00    +0.056 A 
ATOM     11  C   UNL     1       2.870  -7.301  -5.837  0.00  0.00    +0.007 A 
ATOM     12  C   UNL     1       3.467  -8.031  -4.755  0.00  0.00    -0.050 A 
ATOM     13  C   UNL     1       4.502  -9.059  -5.129  0.00  0.00    +0.044 C 
ATOM     14  C   UNL     1       3.129  -7.774  -3.439  0.00  0.00    +0.019 A 
ATOM     15  C   UNL     1       2.165  -6.798  -3.139  0.00  0.00    +0.072 A 
ENDROOT
BRANCH   6  16
ATOM     16  C   UNL     1      -1.484  -3.064  -2.976  0.00  0.00    +0.121 A 
ATOM     17  C   UNL     1      -2.530  -3.523  -3.773  0.00  0.00    +0.049 A 
ATOM     18  C   UNL     1      -3.268  -2.603  -4.534  0.00  0.00    +0.004 A 
ATOM     19  C   UNL     1      -2.980  -1.224  -4.447  0.00  0.00    +0.000 A 
ATOM     20  C   UNL     1      -1.957  -0.747  -3.643  0.00  0.00    +0.004 A 
ATOM     21  C   UNL     1      -1.186  -1.684  -2.928  0.00  0.00    +0.049 A 
ENDBRANCH   6  16
BRANCH   3  22
ATOM     22  O   UNL     1       2.515  -4.170  -1.726  0.00  0.00    -0.370 OA
ATOM     23  H   UNL     1       2.890  -3.981  -0.785  0.00  0.00    +0.211 HD
ENDBRANCH   3  22
TORSDOF 2
