REMARK  Name = LIGAND
REMARK  3 active torsions:
REMARK  status: ('A' for Active; 'I' for Inactive)
REMARK    1  A    between atoms: C_6  and  C_7
REMARK    2  A    between atoms: C_16  and  O_19
REMARK    3  A    between atoms: N_27  and  C_28
REMARK                            x       y       z     vdW  Elec       q    Type
REMARK                         _______ _______ _______ _____ _____    ______ ____
ROOT
ATOM      1  O   UNL     1       1.318   3.303   0.945  0.00  0.00    -0.288 OA
ATOM      2  C   UNL     1       0.576   3.206  -0.050  0.00  0.00    +0.211 C 
ATOM      3  C   UNL     1       1.162   3.343  -1.415  0.00  0.00    +0.235 C 
ATOM      4  C   UNL     1       2.400   4.262  -1.531  0.00  0.00    +0.099 C 
ATOM      5  C   UNL     1       2.277   4.770  -2.966  0.00  0.00    +0.236 C 
ATOM      6  N   UNL     1       0.837   4.695  -3.292  0.00  0.00    -0.188 N 
ATOM      7  C   UNL     1       0.167   4.059  -2.343  0.00  0.00    +0.334 C 
ATOM      8  N   UNL     1      -1.150   3.617  -2.315  0.00  0.00    -0.042 NA
ATOM      9  C   UNL     1      -1.606   2.970  -1.201  0.00  0.00    +0.187 A 
ATOM     10  C   UNL     1      -2.920   2.502  -1.274  0.00  0.00    +0.056 A 
ATOM     11  C   UNL     1      -3.457   1.867  -0.145  0.00  0.00    +0.007 A 
ATOM     12  C   UNL     1      -2.645   1.704   1.027  0.00  0.00    -0.050 A 
ATOM     13  C   UNL     1      -3.279   0.980   2.187  0.00  0.00    +0.044 C 
ATOM     14  C   UNL     1      -1.341   2.158   1.071  0.00  0.00    +0.019 A 
ATOM     15  C   UNL     1      -0.789   2.818  -0.039  0.00  0.00    +0.072 A 
ENDROOT
BRANCH   6  16
ATOM     16  C   UNL     1       0.392   5.146  -4.564  0.00  0.00    +0.121 A 
ATOM     17  C   UNL     1      -0.687   4.592  -5.249  0.00  0.00    +0.049 A 
ATOM     18  C   UNL     1      -0.974   5.034  -6.551  0.00  0.00    +0.004 A 
ATOM     19  C   UNL     1      -0.204   6.064  -7.131  0.00  0.00    +0.000 A 
ATOM     20  C   UNL     1       0.858   6.643  -6.456  0.00  0.00    +0.004 A 
ATOM     21  C   UNL     1       1.174   6.153  -5.173  0.00  0.00    +0.049 A 
ENDBRANCH   6  16
BRANCH   3  22
ATOM     22  O   UNL     1       1.431   1.927  -1.856  0.00  0.00    -0.370 OA
ATOM     23  H   UNL     1       0.538   1.436  -2.003  0.00  0.00    +0.211 HD
ENDBRANCH   3  22
TORSDOF 2
