REMARK  Name = LIGAND
REMARK  3 active torsions:
REMARK  status: ('A' for Active; 'I' for Inactive)
REMARK    1  A    between atoms: C_6  and  C_7
REMARK    2  A    between atoms: C_16  and  O_19
REMARK    3  A    between atoms: N_27  and  C_28
REMARK                            x       y       z     vdW  Elec       q    Type
REMARK                         _______ _______ _______ _____ _____    ______ ____
ROOT
ATOM      1  O   UNL     1      -0.387  -4.979   0.206  0.00  0.00    -0.288 OA
ATOM      2  C   UNL     1      -0.078  -6.108   0.629  0.00  0.00    +0.211 C 
ATOM      3  C   UNL     1       1.191  -6.282   1.393  0.00  0.00    +0.235 C 
ATOM      4  C   UNL     1       2.341  -5.317   1.024  0.00  0.00    +0.099 C 
ATOM      5  C   UNL     1       3.572  -6.161   1.349  0.00  0.00    +0.236 C 
ATOM      6  N   UNL     1       3.134  -7.567   1.221  0.00  0.00    -0.188 N 
ATOM      7  C   UNL     1       1.821  -7.644   1.061  0.00  0.00    +0.334 C 
ATOM      8  N   UNL     1       0.978  -8.749   1.071  0.00  0.00    -0.042 NA
ATOM      9  C   UNL     1      -0.362  -8.557   0.885  0.00  0.00    +0.187 A 
ATOM     10  C   UNL     1      -1.150  -9.707   0.972  0.00  0.00    +0.056 A 
ATOM     11  C   UNL     1      -2.529  -9.580   0.747  0.00  0.00    +0.007 A 
ATOM     12  C   UNL     1      -3.082  -8.287   0.458  0.00  0.00    -0.050 A 
ATOM     13  C   UNL     1      -4.575  -8.223   0.265  0.00  0.00    +0.044 C 
ATOM     14  C   UNL     1      -2.285  -7.160   0.396  0.00  0.00    +0.019 A 
ATOM     15  C   UNL     1      -0.899  -7.267   0.593  0.00  0.00    +0.072 A 
ENDROOT
BRANCH   6  16
ATOM     16  C   UNL     1       4.081  -8.607   1.423  0.00  0.00    +0.121 A 
ATOM     17  C   UNL     1       4.944  -8.669   2.515  0.00  0.00    +0.049 A 
ATOM     18  C   UNL     1       5.921  -9.676   2.561  0.00  0.00    +0.004 A 
ATOM     19  C   UNL     1       5.988 -10.641   1.534  0.00  0.00    +0.000 A 
ATOM     20  C   UNL     1       5.124 -10.609   0.452  0.00  0.00    +0.004 A 
ATOM     21  C   UNL     1       4.184  -9.562   0.386  0.00  0.00    +0.049 A 
ENDBRANCH   6  16
BRANCH   3  22
ATOM     22  O   UNL     1       0.778  -6.187   2.840  0.00  0.00    -0.370 OA
ATOM     23  H   UNL     1       0.422  -7.100   3.158  0.00  0.00    +0.211 HD
ENDBRANCH   3  22
TORSDOF 2
