REMARK  Name = LIGAND
REMARK  7 active torsions:
REMARK  status: ('A' for Active; 'I' for Inactive)
REMARK    1  A    between atoms: C_1  and  C_3
REMARK    2  A    between atoms: C_1  and  C_6
REMARK    3  A    between atoms: C_1  and  C_20
REMARK    4  A    between atoms: C_6  and  C_9
REMARK    5  A    between atoms: C_20  and  C_22
REMARK    6  A    between atoms: C_20  and  C_25
REMARK    7  A    between atoms: C_25  and  C_28
REMARK                            x       y       z     vdW  Elec       q    Type
REMARK                         _______ _______ _______ _____ _____    ______ ____
ROOT
ATOM      1  C   UNL     1      57.637  25.171  34.547  0.00  0.00    +0.121 C 
ENDROOT
BRANCH   1   2
ATOM      2  C   UNL     1      57.514  26.579  35.058  0.00  0.00    +0.360 C 
ATOM      3  O   UNL     1      58.296  26.984  35.956  0.00  0.00    -0.246 OA
ATOM      4  O   UNL     1      56.673  27.387  34.600  0.00  0.00    -0.246 OA
ENDBRANCH   1   2
BRANCH   1   5
ATOM      5  C   UNL     1      57.416  25.103  33.028  0.00  0.00    +0.121 C 
BRANCH   5   6
ATOM      6  C   UNL     1      57.915  26.347  32.321  0.00  0.00    +0.360 C 
ATOM      7  O   UNL     1      59.123  26.660  32.244  0.00  0.00    -0.246 OA
ATOM      8  O   UNL     1      57.085  27.116  31.789  0.00  0.00    -0.246 OA
ENDBRANCH   5   6
BRANCH   5   9
ATOM      9  C   UNL     1      58.113  23.837  32.491  0.00  0.00    +0.050 C 
BRANCH   9  10
ATOM     10  C   UNL     1      58.004  23.775  30.975  0.00  0.00    -0.047 A 
ATOM     11  C   UNL     1      56.817  23.367  30.354  0.00  0.00    +0.003 A 
ATOM     12  C   UNL     1      56.711  23.355  28.953  0.00  0.00    +0.000 A 
ATOM     13  C   UNL     1      57.807  23.665  28.158  0.00  0.00    +0.000 A 
ATOM     14  C   UNL     1      59.005  24.077  28.771  0.00  0.00    +0.000 A 
ATOM     15  C   UNL     1      59.093  24.102  30.170  0.00  0.00    +0.003 A 
ENDBRANCH   9  10
ENDBRANCH   5   9
ENDBRANCH   1   5
BRANCH   1  16
ATOM     16  C   UNL     1      56.626  24.221  35.243  0.00  0.00    +0.051 C 
BRANCH  16  17
ATOM     17  C   UNL     1      57.077  24.110  36.685  0.00  0.00    -0.043 A 
ATOM     18  C   UNL     1      58.095  23.202  36.955  0.00  0.00    +0.007 A 
ATOM     19  C   UNL     1      58.604  23.044  38.263  0.00  0.00    +0.050 A 
ATOM     20  C   UNL     1      57.996  23.797  39.264  0.00  0.00    +0.166 A 
ATOM     21  O   UNL     1      58.280  23.803  40.573  0.00  0.00    -0.453 OA
ATOM     22  C   UNL     1      57.437  24.799  41.187  0.00  0.00    +0.466 C 
ATOM     23  O   UNL     1      56.645  25.332  40.114  0.00  0.00    -0.453 OA
ATOM     24  C   UNL     1      56.968  24.686  38.989  0.00  0.00    +0.166 A 
ATOM     25  C   UNL     1      56.483  24.898  37.700  0.00  0.00    +0.053 A 
ENDBRANCH  16  17
ENDBRANCH   1  16
TORSDOF 7
