REMARK  Name = LIGAND
REMARK  7 active torsions:
REMARK  status: ('A' for Active; 'I' for Inactive)
REMARK    1  A    between atoms: C_1  and  C_3
REMARK    2  A    between atoms: C_1  and  C_6
REMARK    3  A    between atoms: C_1  and  C_20
REMARK    4  A    between atoms: C_6  and  C_9
REMARK    5  A    between atoms: C_20  and  C_22
REMARK    6  A    between atoms: C_20  and  C_25
REMARK    7  A    between atoms: C_25  and  C_28
REMARK                            x       y       z     vdW  Elec       q    Type
REMARK                         _______ _______ _______ _____ _____    ______ ____
ROOT
ATOM      1  C   UNL     1       0.434   6.498  -1.153  0.00  0.00    +0.121 C 
ENDROOT
BRANCH   1   2
ATOM      2  C   UNL     1       0.109   7.877  -1.655  0.00  0.00    +0.360 C 
ATOM      3  O   UNL     1      -0.809   8.028  -2.502  0.00  0.00    -0.246 OA
ATOM      4  O   UNL     1       0.701   8.899  -1.238  0.00  0.00    -0.246 OA
ENDBRANCH   1   2
BRANCH   1   5
ATOM      5  C   UNL     1       1.637   6.517  -0.198  0.00  0.00    +0.121 C 
BRANCH   5   6
ATOM      6  C   UNL     1       1.361   5.760   1.086  0.00  0.00    +0.360 C 
ATOM      7  O   UNL     1       0.333   5.926   1.778  0.00  0.00    -0.246 OA
ATOM      8  O   UNL     1       2.201   4.928   1.492  0.00  0.00    -0.246 OA
ENDBRANCH   5   6
BRANCH   5   9
ATOM      9  C   UNL     1       2.857   5.935  -0.939  0.00  0.00    +0.050 C 
BRANCH   9  10
ATOM     10  C   UNL     1       4.100   6.763  -0.646  0.00  0.00    -0.047 A 
ATOM     11  C   UNL     1       5.153   6.832  -1.567  0.00  0.00    +0.003 A 
ATOM     12  C   UNL     1       6.277   7.633  -1.307  0.00  0.00    +0.000 A 
ATOM     13  C   UNL     1       6.404   8.304  -0.098  0.00  0.00    +0.000 A 
ATOM     14  C   UNL     1       5.351   8.243   0.835  0.00  0.00    +0.000 A 
ATOM     15  C   UNL     1       4.227   7.453   0.557  0.00  0.00    +0.003 A 
ENDBRANCH   9  10
ENDBRANCH   5   9
ENDBRANCH   1   5
BRANCH   1  16
ATOM     16  C   UNL     1       0.739   5.522  -2.321  0.00  0.00    +0.051 C 
BRANCH  16  17
ATOM     17  C   UNL     1      -0.552   4.776  -2.594  0.00  0.00    -0.043 A 
ATOM     18  C   UNL     1      -1.346   4.475  -1.492  0.00  0.00    +0.007 A 
ATOM     19  C   UNL     1      -2.580   3.806  -1.644  0.00  0.00    +0.050 A 
ATOM     20  C   UNL     1      -2.925   3.418  -2.936  0.00  0.00    +0.166 A 
ATOM     21  O   UNL     1      -4.020   2.755  -3.329  0.00  0.00    -0.453 OA
ATOM     22  C   UNL     1      -3.965   2.655  -4.767  0.00  0.00    +0.466 C 
ATOM     23  O   UNL     1      -2.737   3.300  -5.140  0.00  0.00    -0.453 OA
ATOM     24  C   UNL     1      -2.117   3.705  -4.026  0.00  0.00    +0.166 A 
ATOM     25  C   UNL     1      -0.920   4.409  -3.910  0.00  0.00    +0.053 A 
ENDBRANCH  16  17
ENDBRANCH   1  16
TORSDOF 7
