REMARK  32 active torsions:
REMARK  status: ('A' for Active; 'I' for Inactive)
REMARK    1  A    between atoms: N11_6028  and  C37_6029 
REMARK    2  A    between atoms: C4_5978  and  C5_5979 
REMARK       I    between atoms: C10_5990  and  N7_6000 
REMARK    3  A    between atoms: C34_6023  and  C35_6024 
REMARK       I    between atoms: C38_6030  and  N12_6032 
REMARK    4  A    between atoms: N1_5973  and  C1_5974 
REMARK    5  A    between atoms: C25_6011  and  A26_6012 
REMARK    6  A    between atoms: C9_5989  and  C11_5992 
REMARK    7  A    between atoms: C9_5989  and  C10_5990 
REMARK    8  A    between atoms: N8_6007  and  C23_6008 
REMARK    9  A    between atoms: C11_5992  and  A12_5993 
REMARK   10  A    between atoms: C1_5974  and  C3_5977 
REMARK   11  A    between atoms: C39_6033  and  C41_6036 
REMARK   12  A    between atoms: N6_5988  and  C9_5989 
REMARK   13  A    between atoms: C3_5977  and  C4_5978 
REMARK   14  A    between atoms: N12_6032  and  C39_6033 
REMARK   15  A    between atoms: N7_6000  and  C18_6001 
REMARK       I    between atoms: C8_5986  and  N6_5988 
REMARK   16  A    between atoms: C23_6008  and  C25_6011 
REMARK   17  A    between atoms: C35_6024  and  C36_6025 
REMARK   18  A    between atoms: C39_6033  and  C40_6034 
REMARK   19  A    between atoms: N5_5984  and  C7_5985 
REMARK   20  A    between atoms: C23_6008  and  C24_6009 
REMARK   21  A    between atoms: C41_6036  and  C42_6037 
REMARK   22  A    between atoms: A31_6017  and  O7_6018 
REMARK   23  A    between atoms: C18_6001  and  C19_6002 
REMARK       I    between atoms: C6_5981  and  N3_5982 
REMARK   24  A    between atoms: C32_6020  and  C34_6023 
REMARK       I    between atoms: N2_5980  and  C6_5981 
REMARK   25  A    between atoms: C7_5985  and  C8_5986 
REMARK   26  A    between atoms: C37_6029  and  C38_6030 
REMARK       I    between atoms: C33_6021  and  N11_6028 
REMARK       I    between atoms: C24_6009  and  N9_6019 
REMARK       I    between atoms: C36_6025  and  N10_6027 
REMARK       I    between atoms: C2_5975  and  N5_5984 
REMARK   27  A    between atoms: A17_5998  and  O4_5999 
REMARK   28  A    between atoms: C1_5974  and  C2_5975 
REMARK   29  A    between atoms: C18_6001  and  C20_6004 
REMARK       I    between atoms: C19_6002  and  N8_6007 
REMARK   30  A    between atoms: C5_5979  and  N2_5980 
REMARK   31  A    between atoms: C32_6020  and  C33_6021 
REMARK   32  A    between atoms: N9_6019  and  C32_6020 
REMARK RMS_REF  0.4300
ROOT
ATOM      1  C18 VAA     1      43.794  61.300  -2.902  1.00 12.70     0.180 C 
ENDROOT
BRANCH   1   2
ATOM      2  C19 VAA     1      43.698  61.023  -4.402  1.00 10.79     0.241 C 
ATOM      3  N8  VAA     1      42.908  60.023  -4.757  1.00 11.71    -0.346 N 
ATOM      4  O5  VAA     1      44.342  61.684  -5.217  1.00  8.76    -0.271 OA
ATOM      5  H29 VAA     1      42.234  59.692  -4.093  1.00  0.00     0.163 HD
BRANCH   3   6
ATOM      6  C23 VAA     1      42.772  59.605  -6.141  1.00 12.55     0.180 C 
BRANCH   6   7
ATOM      7  C25 VAA     1      42.116  58.221  -6.198  1.00 10.15     0.073 C 
BRANCH   7   8
ATOM      8  A26 VAA     1      43.018  57.146  -5.649  1.00 10.83    -0.056 A 
ATOM      9  A28 VAA     1      43.822  56.389  -6.498  1.00  7.42     0.010 A 
ATOM     10  A27 VAA     1      43.123  56.934  -4.278  1.00 12.25     0.010 A 
ATOM     11  A30 VAA     1      44.714  55.458  -6.000  1.00 11.55     0.037 A 
ATOM     12  A31 VAA     1      44.816  55.266  -4.633  1.00 16.52     0.065 A 
ATOM     13  A29 VAA     1      44.018  56.000  -3.763  1.00 19.14     0.037 A 
BRANCH  12  14
ATOM     14  O7  VAA     1      45.733  54.363  -4.141  1.00 19.71    -0.361 OA
ATOM     15  H37 VAA     1      45.706  53.561  -4.645  1.00  0.00     0.217 HD
ENDBRANCH  12  14
ENDBRANCH   7   8
ENDBRANCH   6   7
BRANCH   6  16
ATOM     16  C24 VAA     1      42.097  60.558  -7.116  1.00 16.79     0.241 C 
ATOM     17  O6  VAA     1      41.209  61.336  -6.750  1.00 10.94    -0.271 OA
ATOM     18  N9  VAA     1      42.551  60.476  -8.364  1.00 17.51    -0.346 N 
ATOM     19  H38 VAA     1      43.148  59.713  -8.609  1.00  0.00     0.163 HD
BRANCH  18  20
ATOM     20  C32 VAA     1      42.037  61.263  -9.478  1.00 19.73     0.177 C 
BRANCH  20  21
ATOM     21  C33 VAA     1      40.977  60.405 -10.190  1.00 18.15     0.240 C 
ATOM     22  N11 VAA     1      39.971  61.038 -10.785  1.00 15.97    -0.351 N 
ATOM     23  O8  VAA     1      41.066  59.175 -10.187  1.00 19.39    -0.271 OA
ATOM     24  H46 VAA     1      39.999  62.036 -10.864  1.00  0.00     0.163 HD
BRANCH  22  25
ATOM     25  C37 VAA     1      38.943  60.276 -11.482  1.00 13.28     0.225 C 
BRANCH  25  26
ATOM     26  C38 VAA     1      39.348  59.830 -12.886  1.00 15.17     0.236 C 
ATOM     27  O10 VAA     1      40.149  60.498 -13.553  1.00 11.26    -0.272 OA
ATOM     28  N12 VAA     1      38.789  58.705 -13.332  1.00  9.75    -0.345 N 
ATOM     29  H49 VAA     1      38.055  58.295 -12.788  1.00  0.00     0.163 HD
BRANCH  28  30
ATOM     30  C39 VAA     1      39.070  58.138 -14.646  1.00 11.76     0.185 C 
BRANCH  30  31
ATOM     31  C41 VAA     1      38.688  56.660 -14.659  1.00 12.76     0.040 C 
BRANCH  31  32
ATOM     32  C42 VAA     1      39.409  55.717 -13.701  1.00 13.23    -0.020 C 
ATOM     33  C43 VAA     1      38.772  54.351 -13.792  1.00 12.70     0.009 C 
ATOM     34  C44 VAA     1      40.877  55.627 -14.053  1.00 15.60     0.009 C 
ENDBRANCH  31  32
ENDBRANCH  30  31
BRANCH  30  35
ATOM     35  C40 VAA     1      38.350  58.854 -15.807  1.00 15.70     0.196 C 
ATOM     36  O12 VAA     1      38.888  58.852 -16.929  1.00 12.31    -0.646 OA
ATOM     37  O11 VAA     1      37.244  59.391 -15.609  1.00 12.80    -0.646 OA
ENDBRANCH  30  35
ENDBRANCH  28  30
ENDBRANCH  25  26
ENDBRANCH  22  25
ENDBRANCH  20  21
BRANCH  20  38
ATOM     38  C34 VAA     1      43.191  61.565 -10.434  1.00 25.34     0.044 C 
BRANCH  38  39
ATOM     39  C35 VAA     1      42.822  62.387 -11.647  1.00 34.71     0.105 C 
BRANCH  39  40
ATOM     40  C36 VAA     1      42.427  63.794 -11.284  1.00 39.70     0.215 C 
ATOM     41  O9  VAA     1      41.240  64.116 -11.221  1.00 44.90    -0.274 OA
ATOM     42  N10 VAA     1      43.415  64.638 -11.026  1.00 41.29    -0.370 N 
ATOM     43  H45 VAA     1      44.365  64.320 -11.024  1.00  0.00     0.159 HD
ATOM     44  H44 VAA     1      43.216  65.553 -10.678  1.00  0.00     0.159 HD
ENDBRANCH  39  40
ENDBRANCH  38  39
ENDBRANCH  20  38
ENDBRANCH  18  20
ENDBRANCH   6  16
ENDBRANCH   3   6
ENDBRANCH   1   2
BRANCH   1  45
ATOM     45  C20 VAA     1      43.691  62.821  -2.646  1.00 18.33     0.009 C 
ATOM     46  C21 VAA     1      42.300  63.322  -2.998  1.00 18.29     0.012 C 
ATOM     47  C22 VAA     1      44.000  63.128  -1.186  1.00 17.89     0.012 C 
ENDBRANCH   1  45
BRANCH   1  48
ATOM     48  N7  VAA     1      45.113  60.779  -2.542  1.00 14.97    -0.346 N 
ATOM     49  C10 VAA     1      45.293  59.574  -2.007  1.00 12.85     0.241 C 
ATOM     50  H20 VAA     1      45.918  61.286  -2.847  1.00  0.00     0.163 HD
ATOM     51  O3  VAA     1      44.363  58.834  -1.685  1.00 10.66    -0.271 OA
BRANCH  49  52
ATOM     52  C9  VAA     1      46.743  59.161  -1.750  1.00 11.41     0.180 C 
BRANCH  52  53
ATOM     53  C11 VAA     1      47.306  58.437  -2.982  1.00 13.20     0.073 C 
BRANCH  53  54
ATOM     54  A12 VAA     1      47.506  59.294  -4.209  1.00 14.92    -0.056 A 
ATOM     55  A14 VAA     1      46.747  59.087  -5.359  1.00 14.36     0.010 A 
ATOM     56  A13 VAA     1      48.478  60.295  -4.228  1.00 13.99     0.010 A 
ATOM     57  A16 VAA     1      46.958  59.854  -6.498  1.00 16.86     0.037 A 
ATOM     58  A17 VAA     1      47.936  60.841  -6.489  1.00 16.40     0.065 A 
ATOM     59  A15 VAA     1      48.694  61.067  -5.357  1.00 13.31     0.037 A 
BRANCH  58  60
ATOM     60  O4  VAA     1      48.171  61.598  -7.611  1.00 16.79    -0.361 OA
ATOM     61  H19 VAA     1      47.586  61.380  -8.328  1.00  0.00     0.217 HD
ENDBRANCH  58  60
ENDBRANCH  53  54
ENDBRANCH  52  53
BRANCH  52  62
ATOM     62  N6  VAA     1      46.811  58.262  -0.612  1.00 12.65    -0.346 N 
ATOM     63  H11 VAA     1      46.483  57.324  -0.734  1.00  0.00     0.163 HD
ATOM     64  C8  VAA     1      47.105  58.674   0.611  1.00 12.36     0.236 C 
ATOM     65  O2  VAA     1      47.278  59.862   0.903  1.00 14.87    -0.272 OA
BRANCH  64  66
ATOM     66  C7  VAA     1      47.130  57.592   1.662  1.00 11.02     0.225 C 
BRANCH  66  67
ATOM     67  N5  VAA     1      47.789  57.945   2.903  1.00 16.21    -0.351 N 
ATOM     68  H8  VAA     1      47.226  58.166   3.699  1.00  0.00     0.163 HD
ATOM     69  C2  VAA     1      49.105  58.102   2.955  1.00 19.37     0.248 C 
ATOM     70  O1  VAA     1      49.839  57.991   1.969  1.00 14.98    -0.271 OA
BRANCH  69  71
ATOM     71  C1  VAA     1      49.690  58.445   4.321  1.00 22.67     0.274 C 
BRANCH  71  72
ATOM     72  C3  VAA     1      50.106  59.909   4.340  1.00 29.06     0.044 C 
BRANCH  72  73
ATOM     73  C4  VAA     1      49.355  60.745   5.336  1.00 36.70     0.023 C 
BRANCH  73  74
ATOM     74  C5  VAA     1      49.772  62.182   5.213  1.00 44.48     0.138 C 
BRANCH  74  75
ATOM     75  N2  VAA     1      49.077  63.027   6.173  1.00 54.12    -0.227 N 
ATOM     76  C6  VAA     1      49.296  64.330   6.324  1.00 59.27     0.665 C 
ATOM     77  H67 VAA     1      48.349  62.590   6.706  1.00  0.00     0.177 HD
ATOM     78  N3  VAA     1      50.203  64.952   5.569  1.00 58.60    -0.235 N 
ATOM     79  N4  VAA     1      48.626  65.002   7.252  1.00 64.09    -0.235 N 
ATOM     80  H66 VAA     1      50.697  64.434   4.870  1.00  0.00     0.174 HD
ATOM     81  H65 VAA     1      50.381  65.929   5.677  1.00  0.00     0.174 HD
ATOM     82  H63 VAA     1      48.796  65.970   7.434  1.00  0.00     0.174 HD
ATOM     83  H64 VAA     1      47.993  64.505   7.848  1.00  0.00     0.174 HD
ENDBRANCH  74  75
ENDBRANCH  73  74
ENDBRANCH  72  73
ENDBRANCH  71  72
BRANCH  71  84
ATOM     84  N1  VAA     1      50.874  57.576   4.567  1.00 15.50    -0.067 N 
ATOM     85  H60 VAA     1      51.435  57.897   5.385  1.00  0.00     0.275 HD
ATOM     86  H61 VAA     1      51.467  57.565   3.714  1.00  0.00     0.275 HD
ATOM     87  H62 VAA     1      50.545  56.606   4.747  1.00  0.00     0.275 HD
ENDBRANCH  71  84
ENDBRANCH  69  71
ENDBRANCH  66  67
ENDBRANCH  64  66
ENDBRANCH  52  62
ENDBRANCH  49  52
ENDBRANCH   1  48
TORSDOF 36
