REMARK  32 active torsions:
REMARK  status: ('A' for Active; 'I' for Inactive)
REMARK    1  A    between atoms: N11_6028  and  C37_6029 
REMARK    2  A    between atoms: C4_5978  and  C5_5979 
REMARK       I    between atoms: C10_5990  and  N7_6000 
REMARK    3  A    between atoms: C34_6023  and  C35_6024 
REMARK       I    between atoms: C38_6030  and  N12_6032 
REMARK    4  A    between atoms: N1_5973  and  C1_5974 
REMARK    5  A    between atoms: C25_6011  and  A26_6012 
REMARK    6  A    between atoms: C9_5989  and  C11_5992 
REMARK    7  A    between atoms: C9_5989  and  C10_5990 
REMARK    8  A    between atoms: N8_6007  and  C23_6008 
REMARK    9  A    between atoms: C11_5992  and  A12_5993 
REMARK   10  A    between atoms: C1_5974  and  C3_5977 
REMARK   11  A    between atoms: C39_6033  and  C41_6036 
REMARK   12  A    between atoms: N6_5988  and  C9_5989 
REMARK   13  A    between atoms: C3_5977  and  C4_5978 
REMARK   14  A    between atoms: N12_6032  and  C39_6033 
REMARK   15  A    between atoms: N7_6000  and  C18_6001 
REMARK       I    between atoms: C8_5986  and  N6_5988 
REMARK   16  A    between atoms: C23_6008  and  C25_6011 
REMARK   17  A    between atoms: C35_6024  and  C36_6025 
REMARK   18  A    between atoms: C39_6033  and  C40_6034 
REMARK   19  A    between atoms: N5_5984  and  C7_5985 
REMARK   20  A    between atoms: C23_6008  and  C24_6009 
REMARK   21  A    between atoms: C41_6036  and  C42_6037 
REMARK   22  A    between atoms: A31_6017  and  O7_6018 
REMARK   23  A    between atoms: C18_6001  and  C19_6002 
REMARK       I    between atoms: C6_5981  and  N3_5982 
REMARK   24  A    between atoms: C32_6020  and  C34_6023 
REMARK       I    between atoms: N2_5980  and  C6_5981 
REMARK   25  A    between atoms: C7_5985  and  C8_5986 
REMARK   26  A    between atoms: C37_6029  and  C38_6030 
REMARK       I    between atoms: C33_6021  and  N11_6028 
REMARK       I    between atoms: C24_6009  and  N9_6019 
REMARK       I    between atoms: C36_6025  and  N10_6027 
REMARK       I    between atoms: C2_5975  and  N5_5984 
REMARK   27  A    between atoms: A17_5998  and  O4_5999 
REMARK   28  A    between atoms: C1_5974  and  C2_5975 
REMARK   29  A    between atoms: C18_6001  and  C20_6004 
REMARK       I    between atoms: C19_6002  and  N8_6007 
REMARK   30  A    between atoms: C5_5979  and  N2_5980 
REMARK   31  A    between atoms: C32_6020  and  C33_6021 
REMARK   32  A    between atoms: N9_6019  and  C32_6020 
REMARK RMS_REF  0.4300
ROOT
ATOM      1  C18 VAA     1       5.439  -5.817  -2.599  1.00 12.70     0.180 C 
ENDROOT
BRANCH   1   2
ATOM      2  C19 VAA     1       5.655  -5.391  -4.051  1.00 10.79     0.241 C 
ATOM      3  N8  VAA     1       6.010  -4.130  -4.238  1.00 11.71    -0.346 N 
ATOM      4  O5  VAA     1       5.482  -6.179  -4.981  1.00  8.76    -0.271 OA
ATOM      5  H29 VAA     1       6.370  -3.618  -3.456  1.00  0.00     0.163 HD
BRANCH   3   6
ATOM      6  C23 VAA     1       6.185  -3.570  -5.566  1.00 12.55     0.180 C 
BRANCH   6   7
ATOM      7  C25 VAA     1       4.816  -3.387  -6.231  1.00 10.15     0.073 C 
BRANCH   7   8
ATOM      8  A26 VAA     1       4.879  -3.605  -7.721  1.00 10.83    -0.056 A 
ATOM      9  A28 VAA     1       5.845  -4.439  -8.279  1.00  7.42     0.010 A 
ATOM     10  A27 VAA     1       3.931  -3.036  -8.566  1.00 12.25     0.010 A 
ATOM     11  A30 VAA     1       5.862  -4.712  -9.634  1.00 11.55     0.037 A 
ATOM     12  A31 VAA     1       4.906  -4.149 -10.460  1.00 16.52     0.065 A 
ATOM     13  A29 VAA     1       3.936  -3.303  -9.933  1.00 19.14     0.037 A 
BRANCH  12  14
ATOM     14  O7  VAA     1       4.905  -4.453 -11.804  1.00 19.71    -0.361 OA
ATOM     15  H37 VAA     1       4.119  -4.931 -12.032  1.00  0.00     0.217 HD
ENDBRANCH  12  14
ENDBRANCH   7   8
ENDBRANCH   6   7
BRANCH   6  16
ATOM     16  C24 VAA     1       7.022  -2.308  -5.709  1.00 16.79     0.241 C 
ATOM     17  O6  VAA     1       6.498  -1.196  -5.845  1.00 10.94    -0.271 OA
ATOM     18  N9  VAA     1       8.335  -2.515  -5.667  1.00 17.51    -0.346 N 
ATOM     19  H38 VAA     1       8.676  -3.453  -5.720  1.00  0.00     0.163 HD
BRANCH  18  20
ATOM     20  C32 VAA     1       9.337  -1.466  -5.815  1.00 19.73     0.177 C 
BRANCH  20  21
ATOM     21  C33 VAA     1       9.489  -1.192  -7.321  1.00 18.15     0.240 C 
ATOM     22  N11 VAA     1      10.670  -1.443  -7.876  1.00 15.97    -0.351 N 
ATOM     23  O8  VAA     1       8.542  -0.742  -7.971  1.00 19.39    -0.271 OA
ATOM     24  H46 VAA     1      11.372  -1.915  -7.341  1.00  0.00     0.163 HD
BRANCH  22  25
ATOM     25  C37 VAA     1      10.867  -1.209  -9.301  1.00 13.28     0.225 C 
BRANCH  25  26
ATOM     26  C38 VAA     1      11.953  -0.181  -9.615  1.00 15.17     0.236 C 
ATOM     27  O10 VAA     1      11.755   0.709 -10.452  1.00 11.26    -0.272 OA
ATOM     28  N12 VAA     1      13.100  -0.311  -8.947  1.00  9.75    -0.345 N 
ATOM     29  H49 VAA     1      13.229  -1.131  -8.387  1.00  0.00     0.163 HD
BRANCH  28  30
ATOM     30  C39 VAA     1      14.235   0.587  -9.124  1.00 11.76     0.185 C 
BRANCH  30  31
ATOM     31  C41 VAA     1      13.929   1.933  -8.472  1.00 12.76     0.040 C 
BRANCH  31  32
ATOM     32  C42 VAA     1      14.349   2.147  -7.021  1.00 13.23    -0.020 C 
ATOM     33  C43 VAA     1      14.343   3.628  -6.726  1.00 12.70     0.009 C 
ATOM     34  C44 VAA     1      13.402   1.430  -6.085  1.00 15.60     0.009 C 
ENDBRANCH  31  32
ENDBRANCH  30  31
BRANCH  30  35
ATOM     35  C40 VAA     1      15.562   0.043  -8.557  1.00 15.70     0.196 C 
ATOM     36  O12 VAA     1      16.557   0.790  -8.556  1.00 12.31    -0.646 OA
ATOM     37  O11 VAA     1      15.606  -1.111  -8.091  1.00 12.80    -0.646 OA
ENDBRANCH  30  35
ENDBRANCH  28  30
ENDBRANCH  25  26
ENDBRANCH  22  25
ENDBRANCH  20  21
BRANCH  20  38
ATOM     38  C34 VAA     1      10.660  -1.973  -5.242  1.00 25.34     0.044 C 
BRANCH  38  39
ATOM     39  C35 VAA     1      11.002  -1.459  -3.863  1.00 34.71     0.105 C 
BRANCH  39  40
ATOM     40  C36 VAA     1      12.478  -1.534  -3.575  1.00 39.70     0.215 C 
ATOM     41  O9  VAA     1      12.919  -1.223  -2.468  1.00 44.90    -0.274 OA
ATOM     42  N10 VAA     1      13.252  -1.964  -4.561  1.00 41.29    -0.370 N 
ATOM     43  H45 VAA     1      12.848  -2.270  -5.425  1.00  0.00     0.159 HD
ATOM     44  H44 VAA     1      14.223  -2.136  -4.400  1.00  0.00     0.159 HD
ENDBRANCH  39  40
ENDBRANCH  38  39
ENDBRANCH  20  38
ENDBRANCH  18  20
ENDBRANCH   6  16
ENDBRANCH   3   6
ENDBRANCH   1   2
BRANCH   1  45
ATOM     45  C20 VAA     1       5.757  -7.322  -2.446  1.00 18.33     0.009 C 
ATOM     46  C21 VAA     1       4.849  -8.147  -3.342  1.00 18.29     0.012 C 
ATOM     47  C22 VAA     1       7.216  -7.587  -2.798  1.00 17.89     0.012 C 
ENDBRANCH   1  45
BRANCH   1  48
ATOM     48  N7  VAA     1       4.022  -5.538  -2.368  1.00 14.97    -0.346 N 
ATOM     49  C10 VAA     1       3.503  -5.388  -1.151  1.00 12.85     0.241 C 
ATOM     50  H20 VAA     1       3.454  -5.303  -3.156  1.00  0.00     0.163 HD
ATOM     51  O3  VAA     1       4.149  -5.563  -0.118  1.00 10.66    -0.271 OA
BRANCH  49  52
ATOM     52  C9  VAA     1       2.016  -5.037  -1.092  1.00 11.41     0.180 C 
BRANCH  52  53
ATOM     53  C11 VAA     1       1.845  -3.532  -0.840  1.00 13.20     0.073 C 
BRANCH  53  54
ATOM     54  A12 VAA     1       2.194  -2.631  -2.001  1.00 14.92    -0.056 A 
ATOM     55  A14 VAA     1       3.502  -2.547  -2.474  1.00 14.36     0.010 A 
ATOM     56  A13 VAA     1       1.218  -1.839  -2.607  1.00 13.99     0.010 A 
ATOM     57  A16 VAA     1       3.826  -1.691  -3.519  1.00 16.86     0.037 A 
ATOM     58  A17 VAA     1       2.834  -0.911  -4.100  1.00 16.40     0.065 A 
ATOM     59  A15 VAA     1       1.530  -0.985  -3.651  1.00 13.31     0.037 A 
BRANCH  58  60
ATOM     60  O4  VAA     1       3.138  -0.046  -5.123  1.00 16.79    -0.361 OA
ATOM     61  H19 VAA     1       2.700  -0.272  -5.936  1.00  0.00     0.217 HD
ENDBRANCH  58  60
ENDBRANCH  53  54
ENDBRANCH  52  53
BRANCH  52  62
ATOM     62  N6  VAA     1       1.375  -5.764  -0.011  1.00 12.65    -0.346 N 
ATOM     63  H11 VAA     1       1.259  -5.296   0.866  1.00  0.00     0.163 HD
ATOM     64  C8  VAA     1       1.114  -7.060  -0.074  1.00 12.36     0.236 C 
ATOM     65  O2  VAA     1       1.453  -7.774  -1.024  1.00 14.87    -0.272 OA
BRANCH  64  66
ATOM     66  C7  VAA     1       0.442  -7.638   1.147  1.00 11.02     0.225 C 
BRANCH  66  67
ATOM     67  N5  VAA     1       1.334  -8.193   2.144  1.00 16.21    -0.351 N 
ATOM     68  H8  VAA     1       2.231  -8.524   1.853  1.00  0.00     0.163 HD
ATOM     69  C2  VAA     1       0.927  -8.383   3.392  1.00 19.37     0.248 C 
ATOM     70  O1  VAA     1      -0.220  -8.135   3.775  1.00 14.98    -0.271 OA
BRANCH  69  71
ATOM     71  C1  VAA     1       1.961  -8.947   4.360  1.00 22.67     0.274 C 
BRANCH  71  72
ATOM     72  C3  VAA     1       3.069  -9.634   3.574  1.00 29.06     0.044 C 
BRANCH  72  73
ATOM     73  C4  VAA     1       3.136 -11.120   3.784  1.00 36.70     0.023 C 
BRANCH  73  74
ATOM     74  C5  VAA     1       4.328 -11.682   3.065  1.00 44.48     0.138 C 
BRANCH  74  75
ATOM     75  N2  VAA     1       4.022 -11.989   1.676  1.00 54.12    -0.227 N 
ATOM     76  C6  VAA     1       4.828 -11.722   0.652  1.00 59.27     0.665 C 
ATOM     77  H67 VAA     1       3.168 -12.486   1.507  1.00  0.00     0.177 HD
ATOM     78  N3  VAA     1       6.008 -11.134   0.860  1.00 58.60    -0.235 N 
ATOM     79  N4  VAA     1       4.438 -12.018  -0.582  1.00 64.09    -0.235 N 
ATOM     80  H66 VAA     1       6.291 -10.922   1.796  1.00  0.00     0.174 HD
ATOM     81  H65 VAA     1       6.619 -10.923   0.099  1.00  0.00     0.174 HD
ATOM     82  H63 VAA     1       4.989 -11.788  -1.383  1.00  0.00     0.174 HD
ATOM     83  H64 VAA     1       3.525 -12.404  -0.721  1.00  0.00     0.174 HD
ENDBRANCH  74  75
ENDBRANCH  73  74
ENDBRANCH  72  73
ENDBRANCH  71  72
BRANCH  71  84
ATOM     84  N1  VAA     1       1.292  -9.927   5.260  1.00 15.50    -0.067 N 
ATOM     85  H60 VAA     1       1.158  -9.550   6.222  1.00  0.00     0.275 HD
ATOM     86  H61 VAA     1       1.861 -10.795   5.296  1.00  0.00     0.275 HD
ATOM     87  H62 VAA     1       0.361 -10.165   4.861  1.00  0.00     0.275 HD
ENDBRANCH  71  84
ENDBRANCH  69  71
ENDBRANCH  66  67
ENDBRANCH  64  66
ENDBRANCH  52  62
ENDBRANCH  49  52
ENDBRANCH   1  48
TORSDOF 36
