REMARK  32 active torsions:
REMARK  status: ('A' for Active; 'I' for Inactive)
REMARK    1  A    between atoms: N11_6028  and  C37_6029 
REMARK    2  A    between atoms: C4_5978  and  C5_5979 
REMARK       I    between atoms: C10_5990  and  N7_6000 
REMARK    3  A    between atoms: C34_6023  and  C35_6024 
REMARK       I    between atoms: C38_6030  and  N12_6032 
REMARK    4  A    between atoms: N1_5973  and  C1_5974 
REMARK    5  A    between atoms: C25_6011  and  A26_6012 
REMARK    6  A    between atoms: C9_5989  and  C11_5992 
REMARK    7  A    between atoms: C9_5989  and  C10_5990 
REMARK    8  A    between atoms: N8_6007  and  C23_6008 
REMARK    9  A    between atoms: C11_5992  and  A12_5993 
REMARK   10  A    between atoms: C1_5974  and  C3_5977 
REMARK   11  A    between atoms: C39_6033  and  C41_6036 
REMARK   12  A    between atoms: N6_5988  and  C9_5989 
REMARK   13  A    between atoms: C3_5977  and  C4_5978 
REMARK   14  A    between atoms: N12_6032  and  C39_6033 
REMARK   15  A    between atoms: N7_6000  and  C18_6001 
REMARK       I    between atoms: C8_5986  and  N6_5988 
REMARK   16  A    between atoms: C23_6008  and  C25_6011 
REMARK   17  A    between atoms: C35_6024  and  C36_6025 
REMARK   18  A    between atoms: C39_6033  and  C40_6034 
REMARK   19  A    between atoms: N5_5984  and  C7_5985 
REMARK   20  A    between atoms: C23_6008  and  C24_6009 
REMARK   21  A    between atoms: C41_6036  and  C42_6037 
REMARK   22  A    between atoms: A31_6017  and  O7_6018 
REMARK   23  A    between atoms: C18_6001  and  C19_6002 
REMARK       I    between atoms: C6_5981  and  N3_5982 
REMARK   24  A    between atoms: C32_6020  and  C34_6023 
REMARK       I    between atoms: N2_5980  and  C6_5981 
REMARK   25  A    between atoms: C7_5985  and  C8_5986 
REMARK   26  A    between atoms: C37_6029  and  C38_6030 
REMARK       I    between atoms: C33_6021  and  N11_6028 
REMARK       I    between atoms: C24_6009  and  N9_6019 
REMARK       I    between atoms: C36_6025  and  N10_6027 
REMARK       I    between atoms: C2_5975  and  N5_5984 
REMARK   27  A    between atoms: A17_5998  and  O4_5999 
REMARK   28  A    between atoms: C1_5974  and  C2_5975 
REMARK   29  A    between atoms: C18_6001  and  C20_6004 
REMARK       I    between atoms: C19_6002  and  N8_6007 
REMARK   30  A    between atoms: C5_5979  and  N2_5980 
REMARK   31  A    between atoms: C32_6020  and  C33_6021 
REMARK   32  A    between atoms: N9_6019  and  C32_6020 
REMARK RMS_REF  0.4300
ROOT
ATOM      1  C18 VAA     1      -0.032   7.032  -4.479  1.00 12.70     0.180 C 
ENDROOT
BRANCH   1   2
ATOM      2  C19 VAA     1      -1.037   7.819  -5.319  1.00 10.79     0.241 C 
ATOM      3  N8  VAA     1      -1.683   8.788  -4.692  1.00 11.71    -0.346 N 
ATOM      4  O5  VAA     1      -1.240   7.541  -6.501  1.00  8.76    -0.271 OA
ATOM      5  H29 VAA     1      -1.308   9.125  -3.825  1.00  0.00     0.163 HD
BRANCH   3   6
ATOM      6  C23 VAA     1      -2.714   9.574  -5.347  1.00 12.55     0.180 C 
BRANCH   6   7
ATOM      7  C25 VAA     1      -2.505   9.533  -6.865  1.00 10.15     0.073 C 
BRANCH   7   8
ATOM      8  A26 VAA     1      -1.642  10.670  -7.347  1.00 10.83    -0.056 A 
ATOM      9  A28 VAA     1      -1.754  11.938  -6.781  1.00  7.42     0.010 A 
ATOM     10  A27 VAA     1      -0.665  10.464  -8.316  1.00 12.25     0.010 A 
ATOM     11  A30 VAA     1      -0.912  12.968  -7.156  1.00 11.55     0.037 A 
ATOM     12  A31 VAA     1       0.063  12.745  -8.113  1.00 16.52     0.065 A 
ATOM     13  A29 VAA     1       0.190  11.493  -8.702  1.00 19.14     0.037 A 
BRANCH  12  14
ATOM     14  O7  VAA     1       0.923  13.765  -8.456  1.00 19.71    -0.361 OA
ATOM     15  H37 VAA     1       1.787  13.420  -8.633  1.00  0.00     0.217 HD
ENDBRANCH  12  14
ENDBRANCH   7   8
ENDBRANCH   6   7
BRANCH   6  16
ATOM     16  C24 VAA     1      -4.166   9.287  -4.998  1.00 16.79     0.241 C 
ATOM     17  O6  VAA     1      -4.969  10.198  -4.770  1.00 10.94    -0.271 OA
ATOM     18  N9  VAA     1      -4.477   7.993  -4.971  1.00 17.51    -0.346 N 
ATOM     19  H38 VAA     1      -3.738   7.321  -5.003  1.00  0.00     0.163 HD
BRANCH  18  20
ATOM     20  C32 VAA     1      -5.795   7.472  -4.630  1.00 19.73     0.177 C 
BRANCH  20  21
ATOM     21  C33 VAA     1      -5.690   6.854  -3.225  1.00 18.15     0.240 C 
ATOM     22  N11 VAA     1      -6.686   7.085  -2.376  1.00 15.97    -0.351 N 
ATOM     23  O8  VAA     1      -4.705   6.183  -2.911  1.00 19.39    -0.271 OA
ATOM     24  H46 VAA     1      -7.518   7.535  -2.707  1.00  0.00     0.163 HD
BRANCH  22  25
ATOM     25  C37 VAA     1      -6.644   6.518  -1.034  1.00 13.28     0.225 C 
BRANCH  25  26
ATOM     26  C38 VAA     1      -6.112   7.478   0.028  1.00 15.17     0.236 C 
ATOM     27  O10 VAA     1      -6.884   8.212   0.658  1.00 11.26    -0.272 OA
ATOM     28  N12 VAA     1      -4.793   7.474   0.220  1.00  9.75    -0.345 N 
ATOM     29  H49 VAA     1      -4.225   6.949  -0.417  1.00  0.00     0.163 HD
BRANCH  28  30
ATOM     30  C39 VAA     1      -4.123   8.324   1.197  1.00 11.76     0.185 C 
BRANCH  30  31
ATOM     31  C41 VAA     1      -3.923   7.551   2.498  1.00 12.76     0.040 C 
BRANCH  31  32
ATOM     32  C42 VAA     1      -4.424   8.176   3.796  1.00 13.23    -0.020 C 
ATOM     33  C43 VAA     1      -5.676   7.452   4.233  1.00 12.70     0.009 C 
ATOM     34  C44 VAA     1      -3.367   8.076   4.873  1.00 15.60     0.009 C 
ENDBRANCH  31  32
ENDBRANCH  30  31
BRANCH  30  35
ATOM     35  C40 VAA     1      -2.762   8.874   0.724  1.00 15.70     0.196 C 
ATOM     36  O12 VAA     1      -1.874   8.063   0.403  1.00 12.31    -0.646 OA
ATOM     37  O11 VAA     1      -2.587  10.105   0.648  1.00 12.80    -0.646 OA
ENDBRANCH  30  35
ENDBRANCH  28  30
ENDBRANCH  25  26
ENDBRANCH  22  25
ENDBRANCH  20  21
BRANCH  20  38
ATOM     38  C34 VAA     1      -6.170   6.394  -5.647  1.00 25.34     0.044 C 
BRANCH  38  39
ATOM     39  C35 VAA     1      -7.232   6.794  -6.645  1.00 34.71     0.105 C 
BRANCH  39  40
ATOM     40  C36 VAA     1      -8.585   6.233  -6.293  1.00 39.70     0.215 C 
ATOM     41  O9  VAA     1      -9.050   6.379  -5.163  1.00 44.90    -0.274 OA
ATOM     42  N10 VAA     1      -9.233   5.601  -7.261  1.00 41.29    -0.370 N 
ATOM     43  H45 VAA     1      -8.848   5.561  -8.185  1.00  0.00     0.159 HD
ATOM     44  H44 VAA     1     -10.175   5.301  -7.121  1.00  0.00     0.159 HD
ENDBRANCH  39  40
ENDBRANCH  38  39
ENDBRANCH  20  38
ENDBRANCH  18  20
ENDBRANCH   6  16
ENDBRANCH   3   6
ENDBRANCH   1   2
BRANCH   1  45
ATOM     45  C20 VAA     1       0.988   8.004  -3.842  1.00 18.33     0.009 C 
ATOM     46  C21 VAA     1       0.898   7.945  -2.326  1.00 18.29     0.012 C 
ATOM     47  C22 VAA     1       2.400   7.650  -4.293  1.00 17.89     0.012 C 
ENDBRANCH   1  45
BRANCH   1  48
ATOM     48  N7  VAA     1       0.603   6.142  -5.451  1.00 14.97    -0.346 N 
ATOM     49  C10 VAA     1       1.306   5.069  -5.097  1.00 12.85     0.241 C 
ATOM     50  H20 VAA     1       0.376   6.261  -6.416  1.00  0.00     0.163 HD
ATOM     51  O3  VAA     1       1.558   4.785  -3.925  1.00 10.66    -0.271 OA
BRANCH  49  52
ATOM     52  C9  VAA     1       1.848   4.212  -6.241  1.00 11.41     0.180 C 
BRANCH  52  53
ATOM     53  C11 VAA     1       1.074   2.887  -6.315  1.00 13.20     0.073 C 
BRANCH  53  54
ATOM     54  A12 VAA     1      -0.243   2.859  -5.577  1.00 14.92    -0.056 A 
ATOM     55  A14 VAA     1      -0.311   2.449  -4.247  1.00 14.36     0.010 A 
ATOM     56  A13 VAA     1      -1.429   3.214  -6.222  1.00 13.99     0.010 A 
ATOM     57  A16 VAA     1      -1.529   2.390  -3.582  1.00 16.86     0.037 A 
ATOM     58  A17 VAA     1      -2.694   2.746  -4.251  1.00 16.40     0.065 A 
ATOM     59  A15 VAA     1      -2.648   3.162  -5.567  1.00 13.31     0.037 A 
BRANCH  58  60
ATOM     60  O4  VAA     1      -3.910   2.678  -3.615  1.00 16.79    -0.361 OA
ATOM     61  H19 VAA     1      -4.552   3.270  -3.992  1.00  0.00     0.217 HD
ENDBRANCH  58  60
ENDBRANCH  53  54
ENDBRANCH  52  53
BRANCH  52  62
ATOM     62  N6  VAA     1       3.253   3.916  -6.021  1.00 12.65    -0.346 N 
ATOM     63  H11 VAA     1       3.584   3.890  -5.076  1.00  0.00     0.163 HD
ATOM     64  C8  VAA     1       4.139   3.870  -7.003  1.00 12.36     0.236 C 
ATOM     65  O2  VAA     1       3.864   4.140  -8.177  1.00 14.87    -0.272 OA
BRANCH  64  66
ATOM     66  C7  VAA     1       5.549   3.546  -6.577  1.00 11.02     0.225 C 
BRANCH  66  67
ATOM     67  N5  VAA     1       6.280   2.664  -7.465  1.00 16.21    -0.351 N 
ATOM     68  H8  VAA     1       6.200   1.676  -7.332  1.00  0.00     0.163 HD
ATOM     69  C2  VAA     1       7.140   3.149  -8.351  1.00 19.37     0.248 C 
ATOM     70  O1  VAA     1       7.394   4.352  -8.459  1.00 14.98    -0.271 OA
BRANCH  69  71
ATOM     71  C1  VAA     1       7.829   2.128  -9.250  1.00 22.67     0.274 C 
BRANCH  71  72
ATOM     72  C3  VAA     1       7.778   0.757  -8.592  1.00 29.06     0.044 C 
BRANCH  72  73
ATOM     73  C4  VAA     1       7.656  -0.383  -9.561  1.00 36.70     0.023 C 
BRANCH  73  74
ATOM     74  C5  VAA     1       7.719   0.136 -10.969  1.00 44.48     0.138 C 
BRANCH  74  75
ATOM     75  N2  VAA     1       7.783  -0.948 -11.938  1.00 54.12    -0.227 N 
ATOM     76  C6  VAA     1       8.887  -1.319 -12.580  1.00 59.27     0.665 C 
ATOM     77  H67 VAA     1       6.940  -1.474 -12.074  1.00  0.00     0.177 HD
ATOM     78  N3  VAA     1      10.040  -0.687 -12.355  1.00 58.60    -0.235 N 
ATOM     79  N4  VAA     1       8.828  -2.303 -13.468  1.00 64.09    -0.235 N 
ATOM     80  H66 VAA     1      10.071   0.050 -11.679  1.00  0.00     0.174 HD
ATOM     81  H65 VAA     1      10.875  -0.952 -12.835  1.00  0.00     0.174 HD
ATOM     82  H63 VAA     1       9.622  -2.579 -14.009  1.00  0.00     0.174 HD
ATOM     83  H64 VAA     1       7.941  -2.725 -13.665  1.00  0.00     0.174 HD
ENDBRANCH  74  75
ENDBRANCH  73  74
ENDBRANCH  72  73
ENDBRANCH  71  72
BRANCH  71  84
ATOM     84  N1  VAA     1       9.244   2.545  -9.451  1.00 15.50    -0.067 N 
ATOM     85  H60 VAA     1       9.625   3.055  -8.625  1.00  0.00     0.275 HD
ATOM     86  H61 VAA     1       9.302   3.146 -10.296  1.00  0.00     0.275 HD
ATOM     87  H62 VAA     1       9.822   1.696  -9.615  1.00  0.00     0.275 HD
ENDBRANCH  71  84
ENDBRANCH  69  71
ENDBRANCH  66  67
ENDBRANCH  64  66
ENDBRANCH  52  62
ENDBRANCH  49  52
ENDBRANCH   1  48
TORSDOF 36
