REMARK  Name = LIGAND
REMARK  5 active torsions:
REMARK  status: ('A' for Active; 'I' for Inactive)
REMARK    1  A    between atoms: O_1  and  C_3
REMARK    2  A    between atoms: C_3  and  C_6
REMARK    3  A    between atoms: C_13  and  N_14
REMARK    4  A    between atoms: C_23  and  C_33
REMARK    5  A    between atoms: N_26  and  C_29
REMARK                            x       y       z     vdW  Elec       q    Type
REMARK                         _______ _______ _______ _____ _____    ______ ____
ROOT
ATOM      1  N   UNL     1      46.330  15.046  15.874  0.00  0.00    -0.284 N 
ATOM      2  H   UNL     1      45.651  14.295  15.686  0.00  0.00    +0.155 HD
ATOM      3  C   UNL     1      45.897  16.061  16.681  0.00  0.00    +0.221 A 
ATOM      4  N   UNL     1      46.706  17.115  16.968  0.00  0.00    -0.196 NA
ATOM      5  C   UNL     1      46.242  18.092  17.788  0.00  0.00    +0.148 A 
ATOM      6  N   UNL     1      47.062  19.177  18.103  0.00  0.00    -0.295 N 
ATOM      7  C   UNL     1      48.407  19.246  17.479  0.00  0.00    +0.154 C 
ATOM      8  C   UNL     1      46.622  20.233  18.978  0.00  0.00    +0.260 A 
ATOM      9  O   UNL     1      47.405  21.159  19.199  0.00  0.00    -0.267 OA
ATOM     10  C   UNL     1      45.243  20.091  19.576  0.00  0.00    +0.050 A 
ATOM     11  C   UNL     1      44.452  19.026  19.259  0.00  0.00    +0.027 A 
ATOM     12  C   UNL     1      44.925  17.997  18.377  0.00  0.00    +0.037 A 
ATOM     13  C   UNL     1      44.155  16.860  18.002  0.00  0.00    +0.126 A 
ATOM     14  N   UNL     1      44.614  15.902  17.177  0.00  0.00    -0.222 NA
ENDROOT
BRANCH  10  15
ATOM     15  C   UNL     1      44.799  21.160  20.495  0.00  0.00    +0.024 A 
ATOM     16  C   UNL     1      44.943  20.998  21.916  0.00  0.00    +0.050 A 
ATOM     17 CL   UNL     1      45.584  19.511  22.554  0.00  0.00    -0.083 Cl
ATOM     18  C   UNL     1      44.543  22.010  22.844  0.00  0.00    +0.021 A 
ATOM     19  C   UNL     1      44.014  23.232  22.333  0.00  0.00    +0.003 A 
ATOM     20  C   UNL     1      43.857  23.419  20.929  0.00  0.00    +0.021 A 
ATOM     21  C   UNL     1      44.264  22.389  20.017  0.00  0.00    +0.050 A 
ATOM     22 CL   UNL     1      44.060  22.644  18.299  0.00  0.00    -0.083 Cl
ENDBRANCH  10  15
BRANCH   1  25
ATOM     23  C   UNL     1      49.221  13.309  14.274  0.00  0.00    -0.020 A 
ATOM     24  C   UNL     1      47.962  13.570  14.866  0.00  0.00    +0.029 A 
ATOM     25  C   UNL     1      47.604  14.903  15.264  0.00  0.00    +0.034 A 
ATOM     26  C   UNL     1      48.535  15.974  15.061  0.00  0.00    +0.023 A 
ATOM     27  C   UNL     1      49.804  15.704  14.461  0.00  0.00    +0.002 A 
ATOM     28  C   UNL     1      50.147  14.393  14.073  0.00  0.00    +0.006 A 
BRANCH  23  29
ATOM     29  C   UNL     1      49.596  11.894  13.862  0.00  0.00    +0.191 C 
BRANCH  29  30
ATOM     30  O   UNL     1      49.980  11.093  14.944  0.00  0.00    -0.390 OA
ATOM     31  H   UNL     1      49.519  11.429  15.801  0.00  0.00    +0.210 HD
ENDBRANCH  29  30
ENDBRANCH  23  29
ENDBRANCH   1  25
TORSDOF 4
