REMARK  Name = LIGAND
REMARK  5 active torsions:
REMARK  status: ('A' for Active; 'I' for Inactive)
REMARK    1  A    between atoms: O_1  and  C_3
REMARK    2  A    between atoms: C_3  and  C_6
REMARK    3  A    between atoms: C_13  and  N_14
REMARK    4  A    between atoms: C_23  and  C_33
REMARK    5  A    between atoms: N_26  and  C_29
REMARK                            x       y       z     vdW  Elec       q    Type
REMARK                         _______ _______ _______ _____ _____    ______ ____
ROOT
ATOM      1  N   UNL     1      -5.094  -6.242   0.381  0.00  0.00    -0.284 N 
ATOM      2  H   UNL     1      -5.714  -7.060   0.470  0.00  0.00    +0.155 HD
ATOM      3  C   UNL     1      -3.756  -6.483   0.525  0.00  0.00    +0.221 A 
ATOM      4  N   UNL     1      -2.855  -5.467   0.455  0.00  0.00    -0.196 NA
ATOM      5  C   UNL     1      -1.535  -5.753   0.585  0.00  0.00    +0.148 A 
ATOM      6  N   UNL     1      -0.594  -4.725   0.505  0.00  0.00    -0.295 N 
ATOM      7  C   UNL     1      -1.084  -3.335   0.330  0.00  0.00    +0.154 C 
ATOM      8  C   UNL     1       0.819  -4.978   0.625  0.00  0.00    +0.260 A 
ATOM      9  O   UNL     1       1.583  -4.013   0.550  0.00  0.00    -0.267 OA
ATOM     10  C   UNL     1       1.241  -6.417   0.798  0.00  0.00    +0.050 A 
ATOM     11  C   UNL     1       0.311  -7.411   0.876  0.00  0.00    +0.027 A 
ATOM     12  C   UNL     1      -1.089  -7.118   0.759  0.00  0.00    +0.037 A 
ATOM     13  C   UNL     1      -2.114  -8.103   0.832  0.00  0.00    +0.126 A 
ATOM     14  N   UNL     1      -3.422  -7.813   0.716  0.00  0.00    -0.222 NA
ENDROOT
BRANCH  10  15
ATOM     15  C   UNL     1       2.692  -6.682   0.895  0.00  0.00    +0.024 A 
ATOM     16  C   UNL     1       3.490  -6.780  -0.297  0.00  0.00    +0.050 A 
ATOM     17 CL   UNL     1       2.730  -6.648  -1.857  0.00  0.00    -0.083 Cl
ATOM     18  C   UNL     1       4.899  -7.019  -0.254  0.00  0.00    +0.021 A 
ATOM     19  C   UNL     1       5.533  -7.131   1.019  0.00  0.00    +0.003 A 
ATOM     20  C   UNL     1       4.766  -7.041   2.217  0.00  0.00    +0.021 A 
ATOM     21  C   UNL     1       3.353  -6.802   2.149  0.00  0.00    +0.050 A 
ATOM     22 CL   UNL     1       2.436  -6.696   3.634  0.00  0.00    -0.083 Cl
ENDBRANCH  10  15
BRANCH   1  25
ATOM     23  C   UNL     1      -6.839  -3.030   1.139  0.00  0.00    -0.020 A 
ATOM     24  C   UNL     1      -6.166  -4.268   1.281  0.00  0.00    +0.029 A 
ATOM     25  C   UNL     1      -5.732  -5.000   0.124  0.00  0.00    +0.034 A 
ATOM     26  C   UNL     1      -5.987  -4.470  -1.183  0.00  0.00    +0.023 A 
ATOM     27  C   UNL     1      -6.665  -3.219  -1.320  0.00  0.00    +0.002 A 
ATOM     28  C   UNL     1      -7.088  -2.507  -0.179  0.00  0.00    +0.006 A 
BRANCH  23  29
ATOM     29  C   UNL     1      -7.303  -2.264   2.368  0.00  0.00    +0.191 C 
BRANCH  29  30
ATOM     30  O   UNL     1      -6.263  -1.981   3.261  0.00  0.00    -0.390 OA
ATOM     31  H   UNL     1      -5.636  -2.795   3.328  0.00  0.00    +0.210 HD
ENDBRANCH  29  30
ENDBRANCH  23  29
ENDBRANCH   1  25
TORSDOF 4
