REMARK  Name = LIGAND
REMARK  5 active torsions:
REMARK  status: ('A' for Active; 'I' for Inactive)
REMARK    1  A    between atoms: O_1  and  C_3
REMARK    2  A    between atoms: C_3  and  C_6
REMARK    3  A    between atoms: C_13  and  N_14
REMARK    4  A    between atoms: C_23  and  C_33
REMARK    5  A    between atoms: N_26  and  C_29
REMARK                            x       y       z     vdW  Elec       q    Type
REMARK                         _______ _______ _______ _____ _____    ______ ____
ROOT
ATOM      1  N   UNL     1      -4.670  -3.767  -5.284  0.00  0.00    -0.284 N 
ATOM      2  H   UNL     1      -5.512  -4.075  -4.778  0.00  0.00    +0.155 HD
ATOM      3  C   UNL     1      -4.853  -2.777  -6.210  0.00  0.00    +0.221 A 
ATOM      4  N   UNL     1      -3.812  -2.319  -6.953  0.00  0.00    -0.196 NA
ATOM      5  C   UNL     1      -4.035  -1.323  -7.848  0.00  0.00    +0.148 A 
ATOM      6  N   UNL     1      -2.975  -0.831  -8.613  0.00  0.00    -0.295 N 
ATOM      7  C   UNL     1      -1.641  -1.461  -8.453  0.00  0.00    +0.154 C 
ATOM      8  C   UNL     1      -3.157   0.232  -9.567  0.00  0.00    +0.260 A 
ATOM      9  O   UNL     1      -2.171   0.603 -10.208  0.00  0.00    -0.267 OA
ATOM     10  C   UNL     1      -4.542   0.823  -9.672  0.00  0.00    +0.050 A 
ATOM     11  C   UNL     1      -5.568   0.333  -8.919  0.00  0.00    +0.027 A 
ATOM     12  C   UNL     1      -5.348  -0.733  -7.984  0.00  0.00    +0.037 A 
ATOM     13  C   UNL     1      -6.370  -1.295  -7.168  0.00  0.00    +0.126 A 
ATOM     14  N   UNL     1      -6.147  -2.292  -6.293  0.00  0.00    -0.222 NA
ENDROOT
BRANCH  10  15
ATOM     15  C   UNL     1      -4.725   1.933 -10.631  0.00  0.00    +0.024 A 
ATOM     16  C   UNL     1      -5.072   1.657 -11.999  0.00  0.00    +0.050 A 
ATOM     17 CL   UNL     1      -5.213   0.008 -12.537  0.00  0.00    -0.083 Cl
ATOM     18  C   UNL     1      -5.275   2.697 -12.959  0.00  0.00    +0.021 A 
ATOM     19  C   UNL     1      -5.160   4.052 -12.531  0.00  0.00    +0.003 A 
ATOM     20  C   UNL     1      -4.814   4.355 -11.182  0.00  0.00    +0.021 A 
ATOM     21  C   UNL     1      -4.613   3.295 -10.236  0.00  0.00    +0.050 A 
ATOM     22 CL   UNL     1      -4.189   3.695  -8.587  0.00  0.00    -0.083 Cl
ENDBRANCH  10  15
BRANCH   1  25
ATOM     23  C   UNL     1      -1.205  -4.141  -3.946  0.00  0.00    -0.020 A 
ATOM     24  C   UNL     1      -2.462  -3.599  -4.307  0.00  0.00    +0.029 A 
ATOM     25  C   UNL     1      -3.458  -4.420  -4.938  0.00  0.00    +0.034 A 
ATOM     26  C   UNL     1      -3.171  -5.799  -5.204  0.00  0.00    +0.023 A 
ATOM     27  C   UNL     1      -1.901  -6.341  -4.834  0.00  0.00    +0.002 A 
ATOM     28  C   UNL     1      -0.929  -5.528  -4.215  0.00  0.00    +0.006 A 
BRANCH  23  29
ATOM     29  C   UNL     1      -0.153  -3.264  -3.285  0.00  0.00    +0.191 C 
BRANCH  29  30
ATOM     30  O   UNL     1       0.001  -3.529  -1.919  0.00  0.00    -0.390 OA
ATOM     31  H   UNL     1      -0.366  -2.737  -1.372  0.00  0.00    +0.210 HD
ENDBRANCH  29  30
ENDBRANCH  23  29
ENDBRANCH   1  25
TORSDOF 4
