REMARK  Name = LIGAND
REMARK  5 active torsions:
REMARK  status: ('A' for Active; 'I' for Inactive)
REMARK    1  A    between atoms: O_1  and  C_3
REMARK    2  A    between atoms: C_3  and  C_6
REMARK    3  A    between atoms: C_13  and  N_14
REMARK    4  A    between atoms: C_23  and  C_33
REMARK    5  A    between atoms: N_26  and  C_29
REMARK                            x       y       z     vdW  Elec       q    Type
REMARK                         _______ _______ _______ _____ _____    ______ ____
ROOT
ATOM      1  N   UNL     1      -4.740   1.819  -0.849  0.00  0.00    -0.284 N 
ATOM      2  H   UNL     1      -4.524   2.694  -1.348  0.00  0.00    +0.155 HD
ATOM      3  C   UNL     1      -5.999   1.718  -0.327  0.00  0.00    +0.221 A 
ATOM      4  N   UNL     1      -6.375   0.616   0.374  0.00  0.00    -0.196 NA
ATOM      5  C   UNL     1      -7.641   0.550   0.861  0.00  0.00    +0.148 A 
ATOM      6  N   UNL     1      -8.049  -0.578   1.574  0.00  0.00    -0.295 N 
ATOM      7  C   UNL     1      -7.054  -1.652   1.820  0.00  0.00    +0.154 C 
ATOM      8  C   UNL     1      -9.384  -0.703   2.099  0.00  0.00    +0.260 A 
ATOM      9  O   UNL     1      -9.661  -1.728   2.724  0.00  0.00    -0.267 OA
ATOM     10  C   UNL     1     -10.339   0.429   1.805  0.00  0.00    +0.050 A 
ATOM     11  C   UNL     1      -9.927   1.526   1.108  0.00  0.00    +0.027 A 
ATOM     12  C   UNL     1      -8.585   1.615   0.606  0.00  0.00    +0.037 A 
ATOM     13  C   UNL     1      -8.086   2.729  -0.127  0.00  0.00    +0.126 A 
ATOM     14  N   UNL     1      -6.827   2.796  -0.594  0.00  0.00    -0.222 NA
ENDROOT
BRANCH  10  15
ATOM     15  C   UNL     1     -11.718   0.292   2.321  0.00  0.00    +0.024 A 
ATOM     16  C   UNL     1     -12.733  -0.331   1.515  0.00  0.00    +0.050 A 
ATOM     17 CL   UNL     1     -12.347  -0.865  -0.096  0.00  0.00    -0.083 Cl
ATOM     18  C   UNL     1     -14.076  -0.500   1.976  0.00  0.00    +0.021 A 
ATOM     19  C   UNL     1     -14.404  -0.064   3.294  0.00  0.00    +0.003 A 
ATOM     20  C   UNL     1     -13.419   0.559   4.114  0.00  0.00    +0.021 A 
ATOM     21  C   UNL     1     -12.078   0.720   3.629  0.00  0.00    +0.050 A 
ATOM     22 CL   UNL     1     -10.888   1.488   4.656  0.00  0.00    -0.083 Cl
ENDBRANCH  10  15
BRANCH   1  25
ATOM     23  C   UNL     1      -2.603  -1.042  -1.938  0.00  0.00    -0.020 A 
ATOM     24  C   UNL     1      -3.592  -0.030  -1.909  0.00  0.00    +0.029 A 
ATOM     25  C   UNL     1      -3.693   0.862  -0.787  0.00  0.00    +0.034 A 
ATOM     26  C   UNL     1      -2.783   0.719   0.311  0.00  0.00    +0.023 A 
ATOM     27  C   UNL     1      -1.785  -0.304   0.275  0.00  0.00    +0.002 A 
ATOM     28  C   UNL     1      -1.693  -1.174  -0.830  0.00  0.00    +0.006 A 
BRANCH  23  29
ATOM     29  C   UNL     1      -2.507  -1.987  -3.126  0.00  0.00    +0.191 C 
BRANCH  29  30
ATOM     30  O   UNL     1      -3.233  -3.169  -2.944  0.00  0.00    -0.390 OA
ATOM     31  H   UNL     1      -4.227  -2.998  -3.153  0.00  0.00    +0.210 HD
ENDBRANCH  29  30
ENDBRANCH  23  29
ENDBRANCH   1  25
TORSDOF 4
