REMARK  Name = 1jyq_ligand
REMARK  21 active torsions:
REMARK  status: ('A' for Active; 'I' for Inactive)
REMARK    1  A    between atoms: C3_3  and  C12_6
REMARK    2  A    between atoms: C12_6  and  O13_7
REMARK    3  A    between atoms: O13_7  and  C16_8
REMARK    4  A    between atoms: N11_10  and  C5_11
REMARK    5  A    between atoms: N_12  and  CA_13
REMARK    6  A    between atoms: CA_13  and  C_14
REMARK    7  A    between atoms: CA_13  and  CB_16
REMARK    8  A    between atoms: CB_16  and  CG_17
REMARK    9  A    between atoms: CZ_22  and  OH_23
REMARK   10  A    between atoms: OH_23  and  P_24
REMARK   11  A    between atoms: N_28  and  CA_29
REMARK   12  A    between atoms: CA_29  and  CH3_30
REMARK   13  A    between atoms: CA_29  and  C_31
REMARK   14  A    between atoms: CA_29  and  CB_33
REMARK   15  A    between atoms: CB_33  and  CG_34
REMARK   16  A    between atoms: CZ_39  and  OH_40
REMARK   17  A    between atoms: OH_40  and  P_41
REMARK   18  A    between atoms: N_45  and  CA_46
REMARK   19  A    between atoms: CA_46  and  C_47
REMARK   20  A    between atoms: CA_46  and  CB_49
REMARK   21  A    between atoms: CB_49  and  CG_50
REMARK                            x       y       z     vdW  Elec       q    Type
REMARK                         _______ _______ _______ _____ _____    ______ ____
ROOT
ATOM      1  C   UNK A   0      -4.547  -3.210   0.547  0.00  0.00    +0.205 C 
ATOM      2  N   UNK A   0      -5.006  -2.522   1.550  0.00  0.00    -0.271 N 
ATOM      3  H   UNK A   0      -4.375  -1.956   2.079  0.00  0.00    +0.184 HD
ATOM      4  O   UNK A   0      -5.206  -4.029  -0.147  0.00  0.00    -0.394 OA
ENDROOT
BRANCH   2   5
ATOM      5  C   UNK A   0      -6.387  -2.553   1.916  0.00  0.00    +0.146 C 
ATOM      6  C   UNK A   0      -7.009  -3.941   1.599  0.00  0.00    +0.045 C 
BRANCH   5   7
ATOM      7  C   UNK A   0      -7.141  -1.258   1.521  0.00  0.00    +0.229 C 
ATOM      8  N   ASN A   1      -8.113  -0.838   2.309  0.00  0.00    -0.266 N 
ATOM      9  H   ASN A   1      -8.360  -1.356   3.128  0.00  0.00    +0.188 HD
ATOM     10  O   UNK A   0      -6.797  -0.605   0.516  0.00  0.00    -0.342 OA
BRANCH   8  11
ATOM     11  CA  ASN A   1      -8.816   0.380   1.972  0.00  0.00    +0.187 C 
BRANCH  11  12
ATOM     12  C   ASN A   1      -8.485   1.450   3.014  0.00  0.00    +0.063 C 
ATOM     13  OXT ASN A   1      -7.490   2.228   2.871  0.00  0.00    -0.566 OA
ATOM     14  O   ASN A   1      -9.237   1.526   3.983  0.00  0.00    -0.566 OA
ENDBRANCH  11  12
BRANCH  11  15
ATOM     15  CB  ASN A   1     -10.355   0.162   1.941  0.00  0.00    +0.181 C 
BRANCH  15  16
ATOM     16  CG  ASN A   1     -11.123   1.283   1.142  0.00  0.00    +0.177 C 
ATOM     17  ND2 ASN A   1     -11.458   1.007  -0.087  0.00  0.00    -0.301 N 
ATOM     18 HD21 ASN A   1     -11.227   0.117  -0.480  0.00  0.00    +0.181 HD
ATOM     19 HD22 ASN A   1     -11.947   1.685  -0.636  0.00  0.00    +0.181 HD
ATOM     20  OD1 ASN A   1     -11.406   2.323   1.658  0.00  0.00    -0.397 OA
ENDBRANCH  15  16
ENDBRANCH  11  15
ENDBRANCH   8  11
ENDBRANCH   5   7
BRANCH   5  21
ATOM     21  C   UNK A   0      -6.308  -2.569   3.484  0.00  0.00    +0.142 C 
BRANCH  21  22
ATOM     22  C   UNK A   0      -7.351  -3.443   4.192  0.00  0.00    -0.003 A 
ATOM     23  C   UNK A   0      -8.732  -3.162   4.038  0.00  0.00    +0.046 A 
ATOM     24  C   UNK A   0      -9.664  -3.959   4.704  0.00  0.00    +0.085 A 
ATOM     25  C   UNK A   0      -9.216  -5.025   5.509  0.00  0.00    +0.173 A 
ATOM     26  C   UNK A   0      -7.862  -5.334   5.690  0.00  0.00    +0.085 A 
ATOM     27  C   UNK A   0      -6.935  -4.505   5.002  0.00  0.00    +0.046 A 
BRANCH  25  28
ATOM     28  O   UNK A   0     -10.136  -5.850   6.185  0.00  0.00    -0.204 OA
BRANCH  28  29
ATOM     29  P   UNK A   0     -10.475  -5.614   7.790  0.00  0.00    +0.135 P 
ATOM     30  O   UNK A   0      -9.873  -4.308   8.117  0.00  0.00    -0.665 OA
ATOM     31  O   UNK A   0      -9.937  -6.753   8.571  0.00  0.00    -0.665 OA
ATOM     32  O   UNK A   0     -11.950  -5.563   8.001  0.00  0.00    -0.665 OA
ENDBRANCH  28  29
ENDBRANCH  25  28
ENDBRANCH  21  22
ENDBRANCH   5  21
ENDBRANCH   2   5
BRANCH   1  33
ATOM     33  C   UNK A   0      -3.071  -3.020   0.440  0.00  0.00    +0.232 C 
BRANCH  33  35
ATOM     34  C   UNK A   0      -1.988  -2.767  -1.735  0.00  0.00    +0.324 C 
ATOM     35  N   UNK A   0      -2.948  -2.518  -0.875  0.00  0.00    -0.238 N 
ATOM     36  H   UNK A   0      -3.674  -1.904  -1.186  0.00  0.00    +0.190 HD
ATOM     37  O   UNK A   0      -1.376  -3.999  -1.733  0.00  0.00    -0.377 OA
BRANCH  34  38
ATOM     38  O   UNK A   0      -2.097  -2.005  -2.787  0.00  0.00    -0.251 OA
BRANCH  38  39
ATOM     39  C   UNK A   0      -1.902  -0.587  -2.908  0.00  0.00    +0.263 C 
BRANCH  39  42
ATOM     40  C   UNK A   0      -4.886   1.526  -4.014  0.00  0.00    -0.024 A 
ATOM     41  C   UNK A   0      -4.076   0.679  -3.205  0.00  0.00    -0.026 A 
ATOM     42  C   UNK A   0      -2.824   0.270  -3.697  0.00  0.00    -0.025 A 
ATOM     43  C   UNK A   0      -2.380   0.667  -4.969  0.00  0.00    +0.004 A 
ATOM     44  C   UNK A   0      -3.184   1.483  -5.775  0.00  0.00    +0.028 A 
ATOM     45  C   UNK A   0      -4.436   1.922  -5.304  0.00  0.00    -0.006 A 
BRANCH  44  46
ATOM     46  N   UNK A   0      -2.740   1.835  -7.003  0.00  0.00    -0.338 N 
ATOM     47  H   UNK A   0      -2.785   1.160  -7.780  0.00  0.00    +0.172 HD
ATOM     48  H   UNK A   0      -2.356   2.777  -7.162  0.00  0.00    +0.172 HD
ENDBRANCH  44  46
ENDBRANCH  39  42
ENDBRANCH  38  39
ENDBRANCH  34  38
ENDBRANCH  33  35
BRANCH  33  49
ATOM     49  C   UNK A   0      -2.661  -1.983   1.527  0.00  0.00    +0.157 C 
BRANCH  49  50
ATOM     50  C   UNK A   0      -1.288  -2.281   2.121  0.00  0.00    -0.000 A 
ATOM     51  C   UNK A   0      -0.153  -1.641   1.559  0.00  0.00    +0.046 A 
ATOM     52  C   UNK A   0       1.115  -1.901   2.049  0.00  0.00    +0.085 A 
ATOM     53  C   UNK A   0       1.249  -2.800   3.108  0.00  0.00    +0.173 A 
ATOM     54  C   UNK A   0       0.152  -3.475   3.723  0.00  0.00    +0.085 A 
ATOM     55  C   UNK A   0      -1.132  -3.198   3.193  0.00  0.00    +0.046 A 
BRANCH  53  56
ATOM     56  O   UNK A   0       2.543  -3.045   3.594  0.00  0.00    -0.204 OA
BRANCH  56  57
ATOM     57  P   UNK A   0       3.168  -4.396   3.915  0.00  0.00    +0.135 P 
ATOM     58  O   UNK A   0       4.510  -4.125   4.370  0.00  0.00    -0.665 OA
ATOM     59  O   UNK A   0       3.219  -5.296   2.775  0.00  0.00    -0.665 OA
ATOM     60  O   UNK A   0       2.376  -5.041   5.084  0.00  0.00    -0.665 OA
ENDBRANCH  56  57
ENDBRANCH  53  56
ENDBRANCH  49  50
ENDBRANCH  33  49
ENDBRANCH   1  33
TORSDOF 20
