REMARK  Name = 1jyq_ligand
REMARK  21 active torsions:
REMARK  status: ('A' for Active; 'I' for Inactive)
REMARK    1  A    between atoms: C3_3  and  C12_6
REMARK    2  A    between atoms: C12_6  and  O13_7
REMARK    3  A    between atoms: O13_7  and  C16_8
REMARK    4  A    between atoms: N11_10  and  C5_11
REMARK    5  A    between atoms: N_12  and  CA_13
REMARK    6  A    between atoms: CA_13  and  C_14
REMARK    7  A    between atoms: CA_13  and  CB_16
REMARK    8  A    between atoms: CB_16  and  CG_17
REMARK    9  A    between atoms: CZ_22  and  OH_23
REMARK   10  A    between atoms: OH_23  and  P_24
REMARK   11  A    between atoms: N_28  and  CA_29
REMARK   12  A    between atoms: CA_29  and  CH3_30
REMARK   13  A    between atoms: CA_29  and  C_31
REMARK   14  A    between atoms: CA_29  and  CB_33
REMARK   15  A    between atoms: CB_33  and  CG_34
REMARK   16  A    between atoms: CZ_39  and  OH_40
REMARK   17  A    between atoms: OH_40  and  P_41
REMARK   18  A    between atoms: N_45  and  CA_46
REMARK   19  A    between atoms: CA_46  and  C_47
REMARK   20  A    between atoms: CA_46  and  CB_49
REMARK   21  A    between atoms: CB_49  and  CG_50
REMARK                            x       y       z     vdW  Elec       q    Type
REMARK                         _______ _______ _______ _____ _____    ______ ____
ROOT
ATOM      1  C   UNK A   0       0.736   1.336   2.416  0.00  0.00    +0.205 C 
ATOM      2  N   UNK A   0       0.540   0.576   1.381  0.00  0.00    -0.271 N 
ATOM      3  H   UNK A   0       0.665   0.959   0.466  0.00  0.00    +0.184 HD
ATOM      4  O   UNK A   0       0.530   1.013   3.617  0.00  0.00    -0.394 OA
ENDROOT
BRANCH   2   5
ATOM      5  C   UNK A   0       0.149  -0.793   1.514  0.00  0.00    +0.146 C 
ATOM      6  C   UNK A   0      -1.251  -0.903   2.176  0.00  0.00    +0.045 C 
BRANCH   5   7
ATOM      7  C   UNK A   0       1.308  -1.703   1.997  0.00  0.00    +0.229 C 
ATOM      8  N   ASN A   1       2.400  -1.126   2.461  0.00  0.00    -0.266 N 
ATOM      9  H   ASN A   1       2.476  -0.129   2.484  0.00  0.00    +0.188 HD
ATOM     10  O   UNK A   0       1.184  -2.943   1.996  0.00  0.00    -0.342 OA
BRANCH   8  11
ATOM     11  CA  ASN A   1       3.486  -1.955   2.937  0.00  0.00    +0.187 C 
BRANCH  11  12
ATOM     12  C   ASN A   1       3.502  -1.923   4.466  0.00  0.00    +0.063 C 
ATOM     13  OXT ASN A   1       4.123  -2.804   5.141  0.00  0.00    -0.566 OA
ATOM     14  O   ASN A   1       2.899  -0.997   5.004  0.00  0.00    -0.566 OA
ENDBRANCH  11  12
BRANCH  11  15
ATOM     15  CB  ASN A   1       4.859  -1.457   2.406  0.00  0.00    +0.181 C 
BRANCH  15  16
ATOM     16  CG  ASN A   1       5.875  -2.630   2.124  0.00  0.00    +0.177 C 
ATOM     17  ND2 ASN A   1       6.141  -3.431   3.118  0.00  0.00    -0.301 N 
ATOM     18 HD21 ASN A   1       5.708  -3.285   4.008  0.00  0.00    +0.181 HD
ATOM     19 HD22 ASN A   1       6.779  -4.190   2.990  0.00  0.00    +0.181 HD
ATOM     20  OD1 ASN A   1       6.349  -2.788   1.039  0.00  0.00    -0.397 OA
ENDBRANCH  15  16
ENDBRANCH  11  15
ENDBRANCH   8  11
ENDBRANCH   5   7
BRANCH   5  21
ATOM     21  C   UNK A   0      -0.149  -1.193   0.025  0.00  0.00    +0.142 C 
BRANCH  21  22
ATOM     22  C   UNK A   0      -1.435  -1.997  -0.200  0.00  0.00    -0.003 A 
ATOM     23  C   UNK A   0      -1.409  -3.413  -0.125  0.00  0.00    +0.046 A 
ATOM     24  C   UNK A   0      -2.587  -4.126  -0.350  0.00  0.00    +0.085 A 
ATOM     25  C   UNK A   0      -3.775  -3.427  -0.641  0.00  0.00    +0.173 A 
ATOM     26  C   UNK A   0      -3.844  -2.031  -0.728  0.00  0.00    +0.085 A 
ATOM     27  C   UNK A   0      -2.630  -1.331  -0.497  0.00  0.00    +0.046 A 
BRANCH  25  28
ATOM     28  O   UNK A   0      -4.980  -4.122  -0.864  0.00  0.00    -0.204 OA
BRANCH  28  29
ATOM     29  P   UNK A   0      -6.202  -4.093   0.256  0.00  0.00    +0.135 P 
ATOM     30  O   UNK A   0      -6.219  -5.449   0.835  0.00  0.00    -0.665 OA
ATOM     31  O   UNK A   0      -7.463  -3.693  -0.413  0.00  0.00    -0.665 OA
ATOM     32  O   UNK A   0      -5.900  -3.090   1.317  0.00  0.00    -0.665 OA
ENDBRANCH  28  29
ENDBRANCH  25  28
ENDBRANCH  21  22
ENDBRANCH   5  21
ENDBRANCH   2   5
BRANCH   1  33
ATOM     33  C   UNK A   0       1.081   2.717   1.968  0.00  0.00    +0.232 C 
BRANCH  33  35
ATOM     34  C   UNK A   0       3.480   2.291   1.792  0.00  0.00    +0.324 C 
ATOM     35  N   UNK A   0       2.430   2.816   2.379  0.00  0.00    -0.238 N 
ATOM     36  H   UNK A   0       2.604   3.346   3.209  0.00  0.00    +0.190 HD
ATOM     37  O   UNK A   0       3.501   2.163   0.423  0.00  0.00    -0.377 OA
BRANCH  34  38
ATOM     38  O   UNK A   0       4.544   2.433   2.531  0.00  0.00    -0.251 OA
BRANCH  38  39
ATOM     39  C   UNK A   0       4.838   1.874   3.822  0.00  0.00    +0.263 C 
BRANCH  39  42
ATOM     40  C   UNK A   0       4.798   4.739   6.348  0.00  0.00    -0.024 A 
ATOM     41  C   UNK A   0       4.518   3.998   5.164  0.00  0.00    -0.026 A 
ATOM     42  C   UNK A   0       5.099   2.727   5.009  0.00  0.00    -0.025 A 
ATOM     43  C   UNK A   0       5.957   2.197   5.988  0.00  0.00    +0.004 A 
ATOM     44  C   UNK A   0       6.249   2.933   7.143  0.00  0.00    +0.028 A 
ATOM     45  C   UNK A   0       5.671   4.202   7.335  0.00  0.00    -0.006 A 
BRANCH  44  46
ATOM     46  N   UNK A   0       7.093   2.407   8.060  0.00  0.00    -0.338 N 
ATOM     47  H   UNK A   0       7.874   1.807   7.757  0.00  0.00    +0.172 HD
ATOM     48  H   UNK A   0       6.955   2.605   9.061  0.00  0.00    +0.172 HD
ENDBRANCH  44  46
ENDBRANCH  39  42
ENDBRANCH  38  39
ENDBRANCH  34  38
ENDBRANCH  33  35
BRANCH  33  49
ATOM     49  C   UNK A   0       0.913   2.753   0.421  0.00  0.00    +0.157 C 
BRANCH  49  50
ATOM     50  C   UNK A   0       0.443   4.116  -0.078  0.00  0.00    -0.000 A 
ATOM     51  C   UNK A   0      -0.865   4.227  -0.617  0.00  0.00    +0.046 A 
ATOM     52  C   UNK A   0      -1.324   5.438  -1.106  0.00  0.00    +0.085 A 
ATOM     53  C   UNK A   0      -0.475   6.544  -1.049  0.00  0.00    +0.173 A 
ATOM     54  C   UNK A   0       0.849   6.506  -0.515  0.00  0.00    +0.085 A 
ATOM     55  C   UNK A   0       1.295   5.250  -0.034  0.00  0.00    +0.046 A 
BRANCH  53  56
ATOM     56  O   UNK A   0      -0.962   7.765  -1.543  0.00  0.00    -0.204 OA
BRANCH  56  57
ATOM     57  P   UNK A   0      -1.903   8.734  -0.842  0.00  0.00    +0.135 P 
ATOM     58  O   UNK A   0      -1.967   9.911  -1.674  0.00  0.00    -0.665 OA
ATOM     59  O   UNK A   0      -1.461   9.109   0.491  0.00  0.00    -0.665 OA
ATOM     60  O   UNK A   0      -3.317   8.096  -0.788  0.00  0.00    -0.665 OA
ENDBRANCH  56  57
ENDBRANCH  53  56
ENDBRANCH  49  50
ENDBRANCH  33  49
ENDBRANCH   1  33
TORSDOF 20
