REMARK  Name = 1jyq_ligand
REMARK  21 active torsions:
REMARK  status: ('A' for Active; 'I' for Inactive)
REMARK    1  A    between atoms: C3_3  and  C12_6
REMARK    2  A    between atoms: C12_6  and  O13_7
REMARK    3  A    between atoms: O13_7  and  C16_8
REMARK    4  A    between atoms: N11_10  and  C5_11
REMARK    5  A    between atoms: N_12  and  CA_13
REMARK    6  A    between atoms: CA_13  and  C_14
REMARK    7  A    between atoms: CA_13  and  CB_16
REMARK    8  A    between atoms: CB_16  and  CG_17
REMARK    9  A    between atoms: CZ_22  and  OH_23
REMARK   10  A    between atoms: OH_23  and  P_24
REMARK   11  A    between atoms: N_28  and  CA_29
REMARK   12  A    between atoms: CA_29  and  CH3_30
REMARK   13  A    between atoms: CA_29  and  C_31
REMARK   14  A    between atoms: CA_29  and  CB_33
REMARK   15  A    between atoms: CB_33  and  CG_34
REMARK   16  A    between atoms: CZ_39  and  OH_40
REMARK   17  A    between atoms: OH_40  and  P_41
REMARK   18  A    between atoms: N_45  and  CA_46
REMARK   19  A    between atoms: CA_46  and  C_47
REMARK   20  A    between atoms: CA_46  and  CB_49
REMARK   21  A    between atoms: CB_49  and  CG_50
REMARK                            x       y       z     vdW  Elec       q    Type
REMARK                         _______ _______ _______ _____ _____    ______ ____
ROOT
ATOM      1  C   UNK A   0       4.381   1.240  -0.756  0.00  0.00    +0.205 C 
ATOM      2  N   UNK A   0       4.097   2.434  -1.182  0.00  0.00    -0.271 N 
ATOM      3  H   UNK A   0       3.140   2.722  -1.219  0.00  0.00    +0.184 HD
ATOM      4  O   UNK A   0       5.527   0.717  -0.741  0.00  0.00    -0.394 OA
ENDROOT
BRANCH   2   5
ATOM      5  C   UNK A   0       5.114   3.347  -1.600  0.00  0.00    +0.146 C 
ATOM      6  C   UNK A   0       5.715   2.915  -2.965  0.00  0.00    +0.045 C 
BRANCH   5   7
ATOM      7  C   UNK A   0       6.052   3.771  -0.440  0.00  0.00    +0.229 C 
ATOM      8  N   ASN A   1       7.193   4.358  -0.745  0.00  0.00    -0.266 N 
ATOM      9  H   ASN A   1       7.446   4.508  -1.701  0.00  0.00    +0.188 HD
ATOM     10  O   UNK A   0       5.705   3.610   0.747  0.00  0.00    -0.342 OA
BRANCH   8  11
ATOM     11  CA  ASN A   1       8.074   4.782   0.322  0.00  0.00    +0.187 C 
BRANCH  11  12
ATOM     12  C   ASN A   1       9.157   5.691  -0.260  0.00  0.00    +0.063 C 
ATOM     13  OXT ASN A   1       8.900   6.514  -1.195  0.00  0.00    -0.566 OA
ATOM     14  O   ASN A   1      10.280   5.595   0.232  0.00  0.00    -0.566 OA
ENDBRANCH  11  12
BRANCH  11  15
ATOM     15  CB  ASN A   1       8.751   3.569   1.019  0.00  0.00    +0.181 C 
BRANCH  15  16
ATOM     16  CG  ASN A   1       8.567   3.575   2.585  0.00  0.00    +0.177 C 
ATOM     17  ND2 ASN A   1       8.042   2.509   3.121  0.00  0.00    -0.301 N 
ATOM     18 HD21 ASN A   1       7.777   1.737   2.543  0.00  0.00    +0.181 HD
ATOM     19 HD22 ASN A   1       7.905   2.463   4.110  0.00  0.00    +0.181 HD
ATOM     20  OD1 ASN A   1       8.923   4.506   3.244  0.00  0.00    -0.397 OA
ENDBRANCH  15  16
ENDBRANCH  11  15
ENDBRANCH   8  11
ENDBRANCH   5   7
BRANCH   5  21
ATOM     21  C   UNK A   0       4.274   4.616  -1.988  0.00  0.00    +0.142 C 
BRANCH  21  22
ATOM     22  C   UNK A   0       4.511   5.161  -3.401  0.00  0.00    -0.003 A 
ATOM     23  C   UNK A   0       3.407   5.472  -4.235  0.00  0.00    +0.046 A 
ATOM     24  C   UNK A   0       3.644   5.951  -5.524  0.00  0.00    +0.085 A 
ATOM     25  C   UNK A   0       4.970   6.120  -5.968  0.00  0.00    +0.173 A 
ATOM     26  C   UNK A   0       6.088   5.823  -5.178  0.00  0.00    +0.085 A 
ATOM     27  C   UNK A   0       5.817   5.334  -3.872  0.00  0.00    +0.046 A 
BRANCH  25  28
ATOM     28  O   UNK A   0       5.238   6.610  -7.261  0.00  0.00    -0.204 OA
BRANCH  28  29
ATOM     29  P   UNK A   0       4.005   7.030  -8.286  0.00  0.00    +0.135 P 
ATOM     30  O   UNK A   0       4.624   7.083  -9.623  0.00  0.00    -0.665 OA
ATOM     31  O   UNK A   0       3.410   8.309  -7.831  0.00  0.00    -0.665 OA
ATOM     32  O   UNK A   0       2.939   5.988  -8.259  0.00  0.00    -0.665 OA
ENDBRANCH  28  29
ENDBRANCH  25  28
ENDBRANCH  21  22
ENDBRANCH   5  21
ENDBRANCH   2   5
BRANCH   1  33
ATOM     33  C   UNK A   0       3.120   0.504  -0.444  0.00  0.00    +0.232 C 
BRANCH  33  35
ATOM     34  C   UNK A   0       1.172   1.552   0.593  0.00  0.00    +0.324 C 
ATOM     35  N   UNK A   0       2.231   1.571  -0.183  0.00  0.00    -0.238 N 
ATOM     36  H   UNK A   0       2.431   2.438  -0.640  0.00  0.00    +0.190 HD
ATOM     37  O   UNK A   0       1.168   0.761   1.718  0.00  0.00    -0.377 OA
BRANCH  34  38
ATOM     38  O   UNK A   0       0.485   2.653   0.469  0.00  0.00    -0.251 OA
BRANCH  38  39
ATOM     39  C   UNK A   0       0.732   3.789  -0.374  0.00  0.00    +0.263 C 
BRANCH  39  42
ATOM     40  C   UNK A   0      -1.241   6.963  -1.166  0.00  0.00    -0.024 A 
ATOM     41  C   UNK A   0      -0.470   5.783  -1.372  0.00  0.00    -0.026 A 
ATOM     42  C   UNK A   0      -0.048   5.046  -0.251  0.00  0.00    -0.025 A 
ATOM     43  C   UNK A   0      -0.359   5.468   1.053  0.00  0.00    +0.004 A 
ATOM     44  C   UNK A   0      -1.100   6.639   1.258  0.00  0.00    +0.028 A 
ATOM     45  C   UNK A   0      -1.550   7.390   0.156  0.00  0.00    -0.006 A 
BRANCH  44  46
ATOM     46  N   UNK A   0      -1.368   7.032   2.524  0.00  0.00    -0.338 N 
ATOM     47  H   UNK A   0      -2.114   6.566   3.061  0.00  0.00    +0.172 HD
ATOM     48  H   UNK A   0      -0.827   7.797   2.952  0.00  0.00    +0.172 HD
ENDBRANCH  44  46
ENDBRANCH  39  42
ENDBRANCH  38  39
ENDBRANCH  34  38
ENDBRANCH  33  35
BRANCH  33  49
ATOM     49  C   UNK A   0       2.737  -0.309  -1.714  0.00  0.00    +0.157 C 
BRANCH  49  50
ATOM     50  C   UNK A   0       2.523  -1.789  -1.410  0.00  0.00    -0.000 A 
ATOM     51  C   UNK A   0       3.030  -2.750  -2.323  0.00  0.00    +0.046 A 
ATOM     52  C   UNK A   0       2.836  -4.102  -2.101  0.00  0.00    +0.085 A 
ATOM     53  C   UNK A   0       2.138  -4.496  -0.958  0.00  0.00    +0.173 A 
ATOM     54  C   UNK A   0       1.606  -3.586   0.004  0.00  0.00    +0.085 A 
ATOM     55  C   UNK A   0       1.810  -2.208  -0.257  0.00  0.00    +0.046 A 
BRANCH  53  56
ATOM     56  O   UNK A   0       1.958  -5.872  -0.748  0.00  0.00    -0.204 OA
BRANCH  56  57
ATOM     57  P   UNK A   0       0.778  -6.727  -1.189  0.00  0.00    +0.135 P 
ATOM     58  O   UNK A   0      -0.386  -5.878  -1.122  0.00  0.00    -0.665 OA
ATOM     59  O   UNK A   0       0.568  -7.899  -0.355  0.00  0.00    -0.665 OA
ATOM     60  O   UNK A   0       0.996  -7.143  -2.668  0.00  0.00    -0.665 OA
ENDBRANCH  56  57
ENDBRANCH  53  56
ENDBRANCH  49  50
ENDBRANCH  33  49
ENDBRANCH   1  33
TORSDOF 20
