REMARK  Name = LIGAND
REMARK  8 active torsions:
REMARK  status: ('A' for Active; 'I' for Inactive)
REMARK    1  A    between atoms: C_10  and  C_19
REMARK    2  A    between atoms: C_11  and  O_25
REMARK    3  A    between atoms: C_13  and  C_18
REMARK    4  A    between atoms: C_16  and  C_22
REMARK    5  A    between atoms: C_17  and  C_20
REMARK    6  A    between atoms: C_17  and  O_26
REMARK    7  A    between atoms: C_20  and  C_21
REMARK    8  A    between atoms: C_21  and  O_28
REMARK                            x       y       z     vdW  Elec       q    Type
REMARK                         _______ _______ _______ _____ _____    ______ ____
ROOT
ATOM      1  C   UNL     1      30.815   6.838   9.638  0.00  0.00    -0.009 C 
ATOM      2  C   UNL     1      31.665   6.714  10.871  0.00  0.00    +0.044 C 
ATOM      3  C   UNL     1      32.183   5.278  10.861  0.00  0.00    +0.023 C 
ATOM      4  C   UNL     1      30.826   7.061  12.102  0.00  0.00    +0.153 C 
ATOM      5  F   UNL     1      30.406   8.341  11.891  0.00  0.00    -0.238 F 
ATOM      6  C   UNL     1      29.493   6.326  12.237  0.00  0.00    +0.154 C 
ATOM      7  C   UNL     1      28.728   6.570  13.534  0.00  0.00    +0.044 C 
ATOM      8  C   UNL     1      29.626   6.477  14.767  0.00  0.00    +0.010 C 
ATOM      9  C   UNL     1      30.065   5.031  14.989  0.00  0.00    +0.015 C 
ATOM     10  C   UNL     1      29.023   7.053  16.048  0.00  0.00    +0.134 C 
ATOM     11  C   UNL     1      30.203   7.463  16.926  0.00  0.00    +0.026 C 
ATOM     12  C   UNL     1      30.004   8.708  17.784  0.00  0.00    +0.011 C 
ATOM     13  C   UNL     1      31.393   7.632  15.986  0.00  0.00    +0.011 C 
ATOM     14  C   UNL     1      30.783   7.462  14.598  0.00  0.00    +0.005 C 
ATOM     15  C   UNL     1      31.654   7.150  13.384  0.00  0.00    +0.034 C 
ATOM     16  C   UNL     1      32.899   8.024  13.270  0.00  0.00    +0.011 C 
ATOM     17  C   UNL     1      33.745   7.708  12.040  0.00  0.00    +0.032 C 
ATOM     18  C   UNL     1      32.860   7.626  10.832  0.00  0.00    -0.053 C 
ATOM     19  C   UNL     1      33.192   8.384   9.790  0.00  0.00    +0.051 C 
ATOM     20  C   UNL     1      32.350   8.367   8.549  0.00  0.00    +0.179 C 
ATOM     21  O   UNL     1      32.690   8.985   7.543  0.00  0.00    -0.288 OA
ATOM     22  C   UNL     1      31.079   7.573   8.564  0.00  0.00    +0.047 C 
ENDROOT
BRANCH   6  23
ATOM     23  O   UNL     1      29.706   4.924  12.158  0.00  0.00    -0.389 OA
ATOM     24  H   UNL     1      28.799   4.442  12.076  0.00  0.00    +0.210 HD
ENDBRANCH   6  23
BRANCH  10  25
ATOM     25  O   UNL     1      28.301   8.239  15.748  0.00  0.00    -0.380 OA
ATOM     26  H   UNL     1      28.937   9.048  15.789  0.00  0.00    +0.211 HD
ENDBRANCH  10  25
BRANCH  10  27
ATOM     27  C   UNL     1      28.053   6.117  16.752  0.00  0.00    +0.190 C 
ATOM     28  O   UNL     1      28.471   5.155  17.393  0.00  0.00    -0.292 OA
BRANCH  27  29
ATOM     29  C   UNL     1      26.546   6.302  16.691  0.00  0.00    +0.233 C 
BRANCH  29  30
ATOM     30  O   UNL     1      25.930   5.111  16.225  0.00  0.00    -0.387 OA
ATOM     31  H   UNL     1      24.966   5.317  15.926  0.00  0.00    +0.210 HD
ENDBRANCH  29  30
ENDBRANCH  27  29
ENDBRANCH  10  27
TORSDOF 5
