REMARK  Name = LIGAND
REMARK  8 active torsions:
REMARK  status: ('A' for Active; 'I' for Inactive)
REMARK    1  A    between atoms: C_10  and  C_19
REMARK    2  A    between atoms: C_11  and  O_25
REMARK    3  A    between atoms: C_13  and  C_18
REMARK    4  A    between atoms: C_16  and  C_22
REMARK    5  A    between atoms: C_17  and  C_20
REMARK    6  A    between atoms: C_17  and  O_26
REMARK    7  A    between atoms: C_20  and  C_21
REMARK    8  A    between atoms: C_21  and  O_28
REMARK                            x       y       z     vdW  Elec       q    Type
REMARK                         _______ _______ _______ _____ _____    ______ ____
ROOT
ATOM      1  C   UNL     1      -2.802  -7.477   1.682  0.00  0.00    -0.009 C 
ATOM      2  C   UNL     1      -1.859  -8.149   2.639  0.00  0.00    +0.044 C 
ATOM      3  C   UNL     1      -0.512  -8.183   1.921  0.00  0.00    +0.023 C 
ATOM      4  C   UNL     1      -2.403  -9.532   3.000  0.00  0.00    +0.153 C 
ATOM      5  F   UNL     1      -3.623  -9.294   3.560  0.00  0.00    -0.238 F 
ATOM      6  C   UNL     1      -2.782 -10.434   1.826  0.00  0.00    +0.154 C 
ATOM      7  C   UNL     1      -3.189 -11.859   2.187  0.00  0.00    +0.044 C 
ATOM      8  C   UNL     1      -2.234 -12.502   3.192  0.00  0.00    +0.010 C 
ATOM      9  C   UNL     1      -0.884 -12.774   2.533  0.00  0.00    +0.015 C 
ATOM     10  C   UNL     1      -2.764 -13.768   3.864  0.00  0.00    +0.134 C 
ATOM     11  C   UNL     1      -2.041 -13.871   5.206  0.00  0.00    +0.026 C 
ATOM     12  C   UNL     1      -2.849 -14.448   6.364  0.00  0.00    +0.011 C 
ATOM     13  C   UNL     1      -1.548 -12.464   5.531  0.00  0.00    +0.011 C 
ATOM     14  C   UNL     1      -2.157 -11.604   4.428  0.00  0.00    +0.005 C 
ATOM     15  C   UNL     1      -1.611 -10.213   4.116  0.00  0.00    +0.034 C 
ATOM     16  C   UNL     1      -1.384  -9.344   5.349  0.00  0.00    +0.011 C 
ATOM     17  C   UNL     1      -0.856  -7.952   5.014  0.00  0.00    +0.032 C 
ATOM     18  C   UNL     1      -1.676  -7.359   3.906  0.00  0.00    -0.053 C 
ATOM     19  C   UNL     1      -2.202  -6.157   4.124  0.00  0.00    +0.051 C 
ATOM     20  C   UNL     1      -3.044  -5.503   3.069  0.00  0.00    +0.179 C 
ATOM     21  O   UNL     1      -3.460  -4.355   3.211  0.00  0.00    -0.288 OA
ATOM     22  C   UNL     1      -3.366  -6.284   1.831  0.00  0.00    +0.047 C 
ENDROOT
BRANCH   6  23
ATOM     23  O   UNL     1      -1.684 -10.548   0.933  0.00  0.00    -0.389 OA
ATOM     24  H   UNL     1      -0.822 -10.729   1.468  0.00  0.00    +0.210 HD
ENDBRANCH   6  23
BRANCH  10  25
ATOM     25  O   UNL     1      -4.147 -13.617   4.152  0.00  0.00    -0.380 OA
ATOM     26  H   UNL     1      -4.571 -12.973   3.470  0.00  0.00    +0.211 HD
ENDBRANCH  10  25
BRANCH  10  27
ATOM     27  C   UNL     1      -2.628 -15.023   3.016  0.00  0.00    +0.190 C 
ATOM     28  O   UNL     1      -1.584 -15.672   3.028  0.00  0.00    -0.292 OA
BRANCH  27  29
ATOM     29  C   UNL     1      -3.742 -15.526   2.114  0.00  0.00    +0.233 C 
BRANCH  29  30
ATOM     30  O   UNL     1      -3.606 -14.966   0.817  0.00  0.00    -0.387 OA
ATOM     31  H   UNL     1      -3.857 -13.968   0.846  0.00  0.00    +0.210 HD
ENDBRANCH  29  30
ENDBRANCH  27  29
ENDBRANCH  10  27
TORSDOF 5
