REMARK  Name = LIGAND
REMARK  8 active torsions:
REMARK  status: ('A' for Active; 'I' for Inactive)
REMARK    1  A    between atoms: C_10  and  C_19
REMARK    2  A    between atoms: C_11  and  O_25
REMARK    3  A    between atoms: C_13  and  C_18
REMARK    4  A    between atoms: C_16  and  C_22
REMARK    5  A    between atoms: C_17  and  C_20
REMARK    6  A    between atoms: C_17  and  O_26
REMARK    7  A    between atoms: C_20  and  C_21
REMARK    8  A    between atoms: C_21  and  O_28
REMARK                            x       y       z     vdW  Elec       q    Type
REMARK                         _______ _______ _______ _____ _____    ______ ____
ROOT
ATOM      1  C   UNL     1       6.452   3.863   3.719  0.00  0.00    -0.009 C 
ATOM      2  C   UNL     1       6.089   4.232   2.309  0.00  0.00    +0.044 C 
ATOM      3  C   UNL     1       4.976   3.265   1.912  0.00  0.00    +0.023 C 
ATOM      4  C   UNL     1       7.333   4.141   1.423  0.00  0.00    +0.153 C 
ATOM      5  F   UNL     1       8.221   5.017   1.974  0.00  0.00    -0.238 F 
ATOM      6  C   UNL     1       8.117   2.831   1.499  0.00  0.00    +0.154 C 
ATOM      7  C   UNL     1       9.272   2.691   0.512  0.00  0.00    +0.044 C 
ATOM      8  C   UNL     1       8.884   3.112  -0.904  0.00  0.00    +0.010 C 
ATOM      9  C   UNL     1       7.905   2.103  -1.502  0.00  0.00    +0.015 C 
ATOM     10  C   UNL     1      10.060   3.339  -1.854  0.00  0.00    +0.134 C 
ATOM     11  C   UNL     1       9.568   4.324  -2.912  0.00  0.00    +0.026 C 
ATOM     12  C   UNL     1      10.597   5.319  -3.437  0.00  0.00    +0.011 C 
ATOM     13  C   UNL     1       8.375   5.048  -2.295  0.00  0.00    +0.011 C 
ATOM     14  C   UNL     1       8.352   4.544  -0.855  0.00  0.00    +0.005 C 
ATOM     15  C   UNL     1       7.104   4.683   0.013  0.00  0.00    +0.034 C 
ATOM     16  C   UNL     1       6.465   6.068  -0.033  0.00  0.00    +0.011 C 
ATOM     17  C   UNL     1       5.230   6.190   0.855  0.00  0.00    +0.032 C 
ATOM     18  C   UNL     1       5.532   5.626   2.211  0.00  0.00    -0.053 C 
ATOM     19  C   UNL     1       5.291   6.413   3.257  0.00  0.00    +0.051 C 
ATOM     20  C   UNL     1       5.578   5.926   4.646  0.00  0.00    +0.179 C 
ATOM     21  O   UNL     1       5.275   6.597   5.630  0.00  0.00    -0.288 OA
ATOM     22  C   UNL     1       6.246   4.594   4.808  0.00  0.00    +0.047 C 
ENDROOT
BRANCH   6  23
ATOM     23  O   UNL     1       7.248   1.735   1.253  0.00  0.00    -0.389 OA
ATOM     24  H   UNL     1       7.658   0.875   1.647  0.00  0.00    +0.210 HD
ENDBRANCH   6  23
BRANCH  10  25
ATOM     25  O   UNL     1      11.122   3.977  -1.159  0.00  0.00    -0.380 OA
ATOM     26  H   UNL     1      10.757   4.416  -0.302  0.00  0.00    +0.211 HD
ENDBRANCH  10  25
BRANCH  10  27
ATOM     27  C   UNL     1      10.632   2.062  -2.449  0.00  0.00    +0.190 C 
ATOM     28  O   UNL     1      10.906   1.107  -1.726  0.00  0.00    -0.292 OA
BRANCH  27  29
ATOM     29  C   UNL     1      10.906   1.902  -3.935  0.00  0.00    +0.233 C 
BRANCH  29  30
ATOM     30  O   UNL     1      11.322   0.573  -4.211  0.00  0.00    -0.387 OA
ATOM     31  H   UNL     1      12.163   0.593  -4.806  0.00  0.00    +0.210 HD
ENDBRANCH  29  30
ENDBRANCH  27  29
ENDBRANCH  10  27
TORSDOF 5
