REMARK  Name = LIGAND
REMARK  9 active torsions:
REMARK  status: ('A' for Active; 'I' for Inactive)
REMARK    1  A    between atoms: C_1  and  O_5
REMARK    2  A    between atoms: O_5  and  C_6
REMARK    3  A    between atoms: C_15  and  C_16
REMARK    4  A    between atoms: C_17  and  C_18
REMARK    5  A    between atoms: N_20  and  C_22
REMARK    6  A    between atoms: C_22  and  C_25
REMARK    7  A    between atoms: C_32  and  C_33
REMARK    8  A    between atoms: C_38  and  O_39
REMARK    9  A    between atoms: C_43  and  O_44
REMARK                            x       y       z     vdW  Elec       q    Type
REMARK                         _______ _______ _______ _____ _____    ______ ____
ROOT
ATOM      1  C   UNL     1      31.657   8.571  26.131  0.00  0.00    +0.040 A 
ATOM      2  C   UNL     1      30.887   9.746  25.892  0.00  0.00    +0.078 A 
ATOM      3  N   UNL     1      30.147   9.948  26.981  0.00  0.00    -0.276 N 
ATOM      4  H   UNL     1      29.457  10.704  27.096  0.00  0.00    +0.189 HD
ATOM      5  N   UNL     1      30.419   9.073  27.852  0.00  0.00    -0.168 NA
ATOM      6  C   UNL     1      31.323   8.196  27.409  0.00  0.00    +0.155 A 
ENDROOT
BRANCH   2   7
ATOM      7  C   UNL     1      30.896  10.509  24.724  0.00  0.00    +0.043 A 
ATOM      8  C   UNL     1      29.705  10.836  24.092  0.00  0.00    +0.130 A 
ATOM      9  C   UNL     1      29.702  11.595  22.923  0.00  0.00    +0.093 A 
ATOM     10  C   UNL     1      30.909  12.092  22.412  0.00  0.00    +0.139 A 
ATOM     11  C   UNL     1      32.098  11.791  23.059  0.00  0.00    +0.083 A 
ATOM     12 CL   UNL     1      33.584  12.418  22.440  0.00  0.00    -0.080 Cl
ATOM     13  C   UNL     1      32.085  11.007  24.224  0.00  0.00    +0.037 A 
BRANCH   8  14
ATOM     14  O   UNL     1      28.547  10.388  24.587  0.00  0.00    -0.506 OA
ATOM     15  H   UNL     1      27.924  11.185  24.779  0.00  0.00    +0.292 HD
ENDBRANCH   8  14
BRANCH  10  16
ATOM     16  O   UNL     1      30.918  12.828  21.274  0.00  0.00    -0.505 OA
ATOM     17  H   UNL     1      31.448  13.697  21.431  0.00  0.00    +0.292 HD
ENDBRANCH  10  16
ENDBRANCH   2   7
BRANCH   1  21
ATOM     18  C   UNL     1      34.474   6.682  23.562  0.00  0.00    +0.120 A 
ATOM     19  C   UNL     1      34.820   7.125  24.832  0.00  0.00    +0.046 A 
ATOM     20  C   UNL     1      33.895   7.753  25.673  0.00  0.00    +0.012 A 
ATOM     21  C   UNL     1      32.579   7.936  25.264  0.00  0.00    -0.013 A 
ATOM     22  C   UNL     1      32.193   7.471  23.989  0.00  0.00    +0.012 A 
ATOM     23  C   UNL     1      33.140   6.855  23.124  0.00  0.00    +0.046 A 
BRANCH  18  25
ATOM     24  C   UNL     1      35.030   5.521  21.559  0.00  0.00    +0.277 C 
ATOM     25  O   UNL     1      35.470   6.078  22.799  0.00  0.00    -0.495 OA
ENDBRANCH  18  25
ENDBRANCH   1  21
BRANCH   6  26
ATOM     26  C   UNL     1      31.844   7.008  28.228  0.00  0.00    +0.265 C 
ATOM     27  N   UNL     1      31.673   7.141  29.548  0.00  0.00    -0.310 N 
ATOM     28  H   UNL     1      31.251   8.017  29.887  0.00  0.00    +0.149 HD
ATOM     29  O   UNL     1      32.384   6.048  27.701  0.00  0.00    -0.268 OA
BRANCH  27  30
ATOM     30  C   UNL     1      32.046   6.120  30.566  0.00  0.00    +0.101 C 
ATOM     31  C   UNL     1      33.459   5.572  30.357  0.00  0.00    +0.024 C 
ENDBRANCH  27  30
ENDBRANCH   6  26
TORSDOF 7
