REMARK  Name = LIGAND
REMARK  9 active torsions:
REMARK  status: ('A' for Active; 'I' for Inactive)
REMARK    1  A    between atoms: C_1  and  O_5
REMARK    2  A    between atoms: O_5  and  C_6
REMARK    3  A    between atoms: C_15  and  C_16
REMARK    4  A    between atoms: C_17  and  C_18
REMARK    5  A    between atoms: N_20  and  C_22
REMARK    6  A    between atoms: C_22  and  C_25
REMARK    7  A    between atoms: C_32  and  C_33
REMARK    8  A    between atoms: C_38  and  O_39
REMARK    9  A    between atoms: C_43  and  O_44
REMARK                            x       y       z     vdW  Elec       q    Type
REMARK                         _______ _______ _______ _____ _____    ______ ____
ROOT
ATOM      1  C   UNL     1      -6.522   2.755   5.880  0.00  0.00    +0.040 A 
ATOM      2  C   UNL     1      -7.350   3.511   5.001  0.00  0.00    +0.078 A 
ATOM      3  N   UNL     1      -8.596   3.401   5.458  0.00  0.00    -0.276 N 
ATOM      4  H   UNL     1      -9.430   3.810   5.011  0.00  0.00    +0.189 HD
ATOM      5  N   UNL     1      -8.603   2.721   6.524  0.00  0.00    -0.168 NA
ATOM      6  C   UNL     1      -7.381   2.287   6.843  0.00  0.00    +0.155 A 
ENDROOT
BRANCH   2   7
ATOM      7  C   UNL     1      -6.926   4.202   3.865  0.00  0.00    +0.043 A 
ATOM      8  C   UNL     1      -7.508   3.947   2.632  0.00  0.00    +0.130 A 
ATOM      9  C   UNL     1      -7.090   4.629   1.491  0.00  0.00    +0.093 A 
ATOM     10  C   UNL     1      -6.117   5.632   1.596  0.00  0.00    +0.139 A 
ATOM     11  C   UNL     1      -5.554   5.909   2.833  0.00  0.00    +0.083 A 
ATOM     12 CL   UNL     1      -4.368   7.157   2.966  0.00  0.00    -0.080 Cl
ATOM     13  C   UNL     1      -5.972   5.197   3.969  0.00  0.00    +0.037 A 
BRANCH   8  14
ATOM     14  O   UNL     1      -8.456   3.010   2.527  0.00  0.00    -0.506 OA
ATOM     15  H   UNL     1      -9.282   3.294   3.073  0.00  0.00    +0.292 HD
ENDBRANCH   8  14
BRANCH  10  16
ATOM     16  O   UNL     1      -5.700   6.299   0.492  0.00  0.00    -0.505 OA
ATOM     17  H   UNL     1      -5.738   5.671  -0.324  0.00  0.00    +0.292 HD
ENDBRANCH  10  16
ENDBRANCH   2   7
BRANCH   1  21
ATOM     18  C   UNL     1      -2.314   2.148   5.707  0.00  0.00    +0.120 A 
ATOM     19  C   UNL     1      -2.975   2.373   6.907  0.00  0.00    +0.046 A 
ATOM     20  C   UNL     1      -4.357   2.581   6.962  0.00  0.00    +0.012 A 
ATOM     21  C   UNL     1      -5.123   2.546   5.803  0.00  0.00    -0.013 A 
ATOM     22  C   UNL     1      -4.482   2.292   4.572  0.00  0.00    +0.012 A 
ATOM     23  C   UNL     1      -3.073   2.106   4.513  0.00  0.00    +0.046 A 
BRANCH  18  25
ATOM     24  C   UNL     1      -0.492   0.632   5.485  0.00  0.00    +0.277 C 
ATOM     25  O   UNL     1      -0.935   1.963   5.757  0.00  0.00    -0.495 OA
ENDBRANCH  18  25
ENDBRANCH   1  21
BRANCH   6  26
ATOM     26  C   UNL     1      -7.068   1.422   8.071  0.00  0.00    +0.265 C 
ATOM     27  N   UNL     1      -7.029   0.109   7.816  0.00  0.00    -0.310 N 
ATOM     28  H   UNL     1      -7.240  -0.195   6.855  0.00  0.00    +0.149 HD
ATOM     29  O   UNL     1      -6.895   1.910   9.177  0.00  0.00    -0.268 OA
BRANCH  27  30
ATOM     30  C   UNL     1      -6.704  -0.947   8.814  0.00  0.00    +0.101 C 
ATOM     31  C   UNL     1      -5.248  -1.410   8.726  0.00  0.00    +0.024 C 
ENDBRANCH  27  30
ENDBRANCH   6  26
TORSDOF 7
