REMARK  Name = LIGAND
REMARK  9 active torsions:
REMARK  status: ('A' for Active; 'I' for Inactive)
REMARK    1  A    between atoms: C_1  and  O_5
REMARK    2  A    between atoms: O_5  and  C_6
REMARK    3  A    between atoms: C_15  and  C_16
REMARK    4  A    between atoms: C_17  and  C_18
REMARK    5  A    between atoms: N_20  and  C_22
REMARK    6  A    between atoms: C_22  and  C_25
REMARK    7  A    between atoms: C_32  and  C_33
REMARK    8  A    between atoms: C_38  and  O_39
REMARK    9  A    between atoms: C_43  and  O_44
REMARK                            x       y       z     vdW  Elec       q    Type
REMARK                         _______ _______ _______ _____ _____    ______ ____
ROOT
ATOM      1  C   UNL     1      -3.101   1.119  -3.320  0.00  0.00    +0.040 A 
ATOM      2  C   UNL     1      -3.735   0.107  -4.097  0.00  0.00    +0.078 A 
ATOM      3  N   UNL     1      -2.853  -0.882  -4.231  0.00  0.00    -0.276 N 
ATOM      4  H   UNL     1      -3.007  -1.743  -4.776  0.00  0.00    +0.189 HD
ATOM      5  N   UNL     1      -1.798  -0.606  -3.590  0.00  0.00    -0.168 NA
ATOM      6  C   UNL     1      -1.869   0.596  -3.014  0.00  0.00    +0.155 A 
ENDROOT
BRANCH   2   7
ATOM      7  C   UNL     1      -5.022   0.169  -4.632  0.00  0.00    +0.043 A 
ATOM      8  C   UNL     1      -5.205   0.330  -5.998  0.00  0.00    +0.130 A 
ATOM      9  C   UNL     1      -6.486   0.396  -6.543  0.00  0.00    +0.093 A 
ATOM     10  C   UNL     1      -7.605   0.233  -5.715  0.00  0.00    +0.139 A 
ATOM     11  C   UNL     1      -7.423   0.042  -4.353  0.00  0.00    +0.083 A 
ATOM     12 CL   UNL     1      -8.801  -0.177  -3.335  0.00  0.00    -0.080 Cl
ATOM     13  C   UNL     1      -6.126  -0.001  -3.817  0.00  0.00    +0.037 A 
BRANCH   8  14
ATOM     14  O   UNL     1      -4.143   0.460  -6.798  0.00  0.00    -0.506 OA
ATOM     15  H   UNL     1      -4.191  -0.241  -7.551  0.00  0.00    +0.292 HD
ENDBRANCH   8  14
BRANCH  10  16
ATOM     16  O   UNL     1      -8.855   0.299  -6.234  0.00  0.00    -0.505 OA
ATOM     17  H   UNL     1      -9.227  -0.653  -6.357  0.00  0.00    +0.292 HD
ENDBRANCH  10  16
ENDBRANCH   2   7
BRANCH   1  21
ATOM     18  C   UNL     1      -4.702   4.866  -2.094  0.00  0.00    +0.120 A 
ATOM     19  C   UNL     1      -4.923   3.701  -1.371  0.00  0.00    +0.046 A 
ATOM     20  C   UNL     1      -4.403   2.468  -1.779  0.00  0.00    +0.012 A 
ATOM     21  C   UNL     1      -3.621   2.375  -2.925  0.00  0.00    -0.013 A 
ATOM     22  C   UNL     1      -3.358   3.548  -3.664  0.00  0.00    +0.012 A 
ATOM     23  C   UNL     1      -3.908   4.798  -3.262  0.00  0.00    +0.046 A 
BRANCH  18  25
ATOM     24  C   UNL     1      -6.621   5.917  -1.154  0.00  0.00    +0.277 C 
ATOM     25  O   UNL     1      -5.272   6.040  -1.609  0.00  0.00    -0.495 OA
ENDBRANCH  18  25
ENDBRANCH   1  21
BRANCH   6  26
ATOM     26  C   UNL     1      -0.740   1.219  -2.182  0.00  0.00    +0.265 C 
ATOM     27  N   UNL     1       0.487   0.928  -2.626  0.00  0.00    -0.310 N 
ATOM     28  H   UNL     1       0.562   0.302  -3.441  0.00  0.00    +0.149 HD
ATOM     29  O   UNL     1      -0.967   1.899  -1.193  0.00  0.00    -0.268 OA
BRANCH  27  30
ATOM     30  C   UNL     1       1.755   1.437  -2.033  0.00  0.00    +0.101 C 
ATOM     31  C   UNL     1       2.650   0.314  -1.507  0.00  0.00    +0.024 C 
ENDBRANCH  27  30
ENDBRANCH   6  26
TORSDOF 7
