REMARK  Name = LIGAND
REMARK  9 active torsions:
REMARK  status: ('A' for Active; 'I' for Inactive)
REMARK    1  A    between atoms: C_1  and  O_5
REMARK    2  A    between atoms: O_5  and  C_6
REMARK    3  A    between atoms: C_15  and  C_16
REMARK    4  A    between atoms: C_17  and  C_18
REMARK    5  A    between atoms: N_20  and  C_22
REMARK    6  A    between atoms: C_22  and  C_25
REMARK    7  A    between atoms: C_32  and  C_33
REMARK    8  A    between atoms: C_38  and  O_39
REMARK    9  A    between atoms: C_43  and  O_44
REMARK                            x       y       z     vdW  Elec       q    Type
REMARK                         _______ _______ _______ _____ _____    ______ ____
ROOT
ATOM      1  C   UNL     1      -3.654   2.197  -0.243  0.00  0.00    +0.040 A 
ATOM      2  C   UNL     1      -4.381   3.270   0.350  0.00  0.00    +0.078 A 
ATOM      3  N   UNL     1      -5.340   2.719   1.093  0.00  0.00    -0.276 N 
ATOM      4  H   UNL     1      -6.055   3.242   1.619  0.00  0.00    +0.189 HD
ATOM      5  N   UNL     1      -5.240   1.460   1.057  0.00  0.00    -0.168 NA
ATOM      6  C   UNL     1      -4.244   1.064   0.261  0.00  0.00    +0.155 A 
ENDROOT
BRANCH   2   7
ATOM      7  C   UNL     1      -4.141   4.630   0.154  0.00  0.00    +0.043 A 
ATOM      8  C   UNL     1      -3.170   5.284   0.900  0.00  0.00    +0.130 A 
ATOM      9  C   UNL     1      -2.923   6.643   0.715  0.00  0.00    +0.093 A 
ATOM     10  C   UNL     1      -3.615   7.348  -0.280  0.00  0.00    +0.139 A 
ATOM     11  C   UNL     1      -4.564   6.689  -1.046  0.00  0.00    +0.083 A 
ATOM     12 CL   UNL     1      -5.404   7.552  -2.285  0.00  0.00    -0.080 Cl
ATOM     13  C   UNL     1      -4.816   5.324  -0.833  0.00  0.00    +0.037 A 
BRANCH   8  14
ATOM     14  O   UNL     1      -2.488   4.613   1.833  0.00  0.00    -0.506 OA
ATOM     15  H   UNL     1      -3.095   3.898   2.256  0.00  0.00    +0.292 HD
ENDBRANCH   8  14
BRANCH  10  16
ATOM     16  O   UNL     1      -3.385   8.671  -0.466  0.00  0.00    -0.505 OA
ATOM     17  H   UNL     1      -4.253   9.130  -0.777  0.00  0.00    +0.292 HD
ENDBRANCH  10  16
ENDBRANCH   2   7
BRANCH   1  21
ATOM     18  C   UNL     1      -0.318   2.435  -2.873  0.00  0.00    +0.120 A 
ATOM     19  C   UNL     1      -0.175   2.529  -1.494  0.00  0.00    +0.046 A 
ATOM     20  C   UNL     1      -1.274   2.458  -0.631  0.00  0.00    +0.012 A 
ATOM     21  C   UNL     1      -2.556   2.269  -1.133  0.00  0.00    -0.013 A 
ATOM     22  C   UNL     1      -2.727   2.143  -2.528  0.00  0.00    +0.012 A 
ATOM     23  C   UNL     1      -1.613   2.240  -3.408  0.00  0.00    +0.046 A 
BRANCH  18  25
ATOM     24  C   UNL     1       1.655   3.667  -3.379  0.00  0.00    +0.277 C 
ATOM     25  O   UNL     1       0.836   2.527  -3.646  0.00  0.00    -0.495 OA
ENDBRANCH  18  25
ENDBRANCH   1  21
BRANCH   6  26
ATOM     26  C   UNL     1      -3.884  -0.404  -0.003  0.00  0.00    +0.265 C 
ATOM     27  N   UNL     1      -4.045  -1.202   1.059  0.00  0.00    -0.310 N 
ATOM     28  H   UNL     1      -4.354  -0.766   1.939  0.00  0.00    +0.149 HD
ATOM     29  O   UNL     1      -3.467  -0.782  -1.086  0.00  0.00    -0.268 OA
BRANCH  27  30
ATOM     30  C   UNL     1      -3.811  -2.673   1.066  0.00  0.00    +0.101 C 
ATOM     31  C   UNL     1      -4.423  -3.358   2.289  0.00  0.00    +0.024 C 
ENDBRANCH  27  30
ENDBRANCH   6  26
TORSDOF 7
