REMARK  Name = LIGAND
REMARK  4 active torsions:
REMARK  status: ('A' for Active; 'I' for Inactive)
REMARK    1  A    between atoms: O_1  and  C_3
REMARK    2  A    between atoms: C_3  and  C_6
REMARK    3  A    between atoms: C_9  and  N_11
REMARK    4  A    between atoms: C_26  and  O_28
REMARK                            x       y       z     vdW  Elec       q    Type
REMARK                         _______ _______ _______ _____ _____    ______ ____
ROOT
ATOM      1  C   UNL     1       5.438  -2.148   4.778  0.00  0.00    +0.181 C 
ATOM      2  C   UNL     1       4.123  -2.170   5.550  0.00  0.00    +0.219 C 
ATOM      3  C   UNL     1       3.100  -1.656   4.517  0.00  0.00    +0.321 C 
ATOM      4  F   UNL     1       2.105  -0.965   5.000  0.00  0.00    -0.198 F 
ATOM      5  F   UNL     1       2.533  -2.649   3.865  0.00  0.00    -0.198 F 
ATOM      6  C   UNL     1       3.929  -0.791   3.534  0.00  0.00    +0.296 C 
ATOM      7  O   UNL     1       5.182  -1.481   3.507  0.00  0.00    -0.342 OA
ENDROOT
BRANCH   6   8
ATOM      8  N   UNL     1       3.328  -0.652   2.182  0.00  0.00    -0.267 N 
ATOM      9  C   UNL     1       2.575   0.445   1.925  0.00  0.00    +0.352 A 
ATOM     10  O   UNL     1       2.214   1.306   2.888  0.00  0.00    -0.244 OA
ATOM     11  N   UNL     1       2.184   0.680   0.656  0.00  0.00    -0.178 NA
ATOM     12  C   UNL     1       2.539  -0.159  -0.322  0.00  0.00    +0.123 A 
ATOM     13  N   UNL     1       2.107   0.136  -1.563  0.00  0.00    -0.343 N 
ATOM     14  H   UNL     1       2.322  -0.497  -2.347  0.00  0.00    +0.144 HD
ATOM     15  H   UNL     1       1.562   0.995  -1.729  0.00  0.00    +0.144 HD
ATOM     16  C   UNL     1       3.233  -1.228  -0.033  0.00  0.00    +0.061 A 
ATOM     17  C   UNL     1       3.550  -1.507   1.206  0.00  0.00    +0.097 A 
ENDBRANCH   6   8
BRANCH   2  18
ATOM     18  O   UNL     1       4.111  -1.288   6.730  0.00  0.00    -0.383 OA
ATOM     19  H   UNL     1       3.417  -1.632   7.409  0.00  0.00    +0.210 HD
ENDBRANCH   2  18
BRANCH   1  20
ATOM     20  C   UNL     1       6.080  -3.528   4.448  0.00  0.00    +0.190 C 
BRANCH  20  21
ATOM     21  O   UNL     1       5.031  -4.405   4.031  0.00  0.00    -0.392 OA
ATOM     22  H   UNL     1       4.809  -4.230   3.042  0.00  0.00    +0.210 HD
ENDBRANCH  20  21
ENDBRANCH   1  20
TORSDOF 4
