REMARK  Name = LIGAND
REMARK  4 active torsions:
REMARK  status: ('A' for Active; 'I' for Inactive)
REMARK    1  A    between atoms: O_1  and  C_3
REMARK    2  A    between atoms: C_3  and  C_6
REMARK    3  A    between atoms: C_9  and  N_11
REMARK    4  A    between atoms: C_26  and  O_28
REMARK                            x       y       z     vdW  Elec       q    Type
REMARK                         _______ _______ _______ _____ _____    ______ ____
ROOT
ATOM      1  C   UNL     1       3.928   6.972  -4.949  0.00  0.00    +0.181 C 
ATOM      2  C   UNL     1       4.874   5.956  -5.579  0.00  0.00    +0.219 C 
ATOM      3  C   UNL     1       3.917   4.984  -6.299  0.00  0.00    +0.321 C 
ATOM      4  F   UNL     1       4.307   3.740  -6.353  0.00  0.00    -0.198 F 
ATOM      5  F   UNL     1       3.732   5.331  -7.555  0.00  0.00    -0.198 F 
ATOM      6  C   UNL     1       2.581   5.096  -5.523  0.00  0.00    +0.296 C 
ATOM      7  O   UNL     1       2.571   6.472  -5.134  0.00  0.00    -0.342 OA
ENDROOT
BRANCH   6   8
ATOM      8  N   UNL     1       1.379   4.720  -6.313  0.00  0.00    -0.267 N 
ATOM      9  C   UNL     1       0.837   3.495  -6.110  0.00  0.00    +0.352 A 
ATOM     10  O   UNL     1       1.441   2.560  -5.363  0.00  0.00    -0.244 OA
ATOM     11  N   UNL     1      -0.356   3.213  -6.673  0.00  0.00    -0.178 NA
ATOM     12  C   UNL     1      -0.981   4.132  -7.416  0.00  0.00    +0.123 A 
ATOM     13  N   UNL     1      -2.166   3.778  -7.952  0.00  0.00    -0.343 N 
ATOM     14  H   UNL     1      -2.672   4.437  -8.561  0.00  0.00    +0.144 HD
ATOM     15  H   UNL     1      -2.564   2.850  -7.752  0.00  0.00    +0.144 HD
ATOM     16  C   UNL     1      -0.411   5.290  -7.622  0.00  0.00    +0.061 A 
ATOM     17  C   UNL     1       0.781   5.545  -7.146  0.00  0.00    +0.097 A 
ENDBRANCH   6   8
BRANCH   2  18
ATOM     18  O   UNL     1       5.684   5.210  -4.601  0.00  0.00    -0.383 OA
ATOM     19  H   UNL     1       6.197   5.872  -4.002  0.00  0.00    +0.210 HD
ENDBRANCH   2  18
BRANCH   1  20
ATOM     20  C   UNL     1       3.965   8.417  -5.526  0.00  0.00    +0.190 C 
BRANCH  20  21
ATOM     21  O   UNL     1       5.278   8.938  -5.307  0.00  0.00    -0.392 OA
ATOM     22  H   UNL     1       5.893   8.658  -6.083  0.00  0.00    +0.210 HD
ENDBRANCH  20  21
ENDBRANCH   1  20
TORSDOF 4
