REMARK  0 active torsions:
REMARK  status: ('A' for Active; 'I' for Inactive)
REMARK RMS_REF  0.4500
ROOT
ATOM      1  S1  AC8     1      -2.849   6.164   5.156  1.00 15.00     0.120 SA
ATOM      2  A1  AC8     1      -1.105   5.988   5.144  1.00 15.00     0.737 A 
ATOM      3  N1  AC8     1      -0.748   4.817   5.702  1.00 15.00    -0.159 N 
ATOM      4  A2  AC8     1      -1.867   4.058   6.125  1.00 15.00     0.059 A 
ATOM      5  A3  AC8     1      -3.089   4.675   5.951  1.00 15.00     0.037 A 
ATOM      6  C4  AC8     1       0.533   4.432   5.865  1.00 15.00     0.115 C 
ATOM      7  C5  AC8     1      -1.576   2.786   6.831  1.00 15.00     0.051 C 
ATOM      8  C6  AC8     1      -4.488   4.172   6.206  1.00 15.00     0.040 C 
ENDROOT
TORSDOF 0
