REMARK  0 active torsions:
REMARK  status: ('A' for Active; 'I' for Inactive)
REMARK RMS_REF  0.4500
ROOT
ATOM      1  S1  AC8     1       3.489  -7.112  -3.703  1.00 15.00     0.120 SA
ATOM      2  A1  AC8     1       3.264  -7.730  -5.328  1.00 15.00     0.737 A 
ATOM      3  N1  AC8     1       4.444  -8.110  -5.852  1.00 15.00    -0.159 N 
ATOM      4  A2  AC8     1       5.521  -7.919  -4.950  1.00 15.00     0.059 A 
ATOM      5  A3  AC8     1       5.179  -7.329  -3.750  1.00 15.00     0.037 A 
ATOM      6  C4  AC8     1       4.582  -8.586  -7.105  1.00 15.00     0.115 C 
ATOM      7  C5  AC8     1       6.878  -8.227  -5.464  1.00 15.00     0.051 C 
ATOM      8  C6  AC8     1       6.013  -7.032  -2.529  1.00 15.00     0.040 C 
ENDROOT
TORSDOF 0
